<?xml version="1.0" ?>
<additional>
   <parkingArea id="pa_-E58_0" lane="-E58_0" startPos="33.055" endPos="41.055" roadsideCapacity="2" friendlyPos="true" angle="90"/>
   <chargingStation id="cs_-E58_0" power="22000" efficiency="0.95" lane="-E58_0" startPos="33.055" endPos="41.055" chargeDelay="5" friendlyPos="true"/>
   <parkingArea id="pa_-E13_0" lane="-E13_0" startPos="34.67" endPos="42.67" roadsideCapacity="2" friendlyPos="true" angle="90"/>
   <chargingStation id="cs_-E13_0" power="22000" efficiency="0.95" lane="-E13_0" startPos="34.67" endPos="42.67" chargeDelay="5" friendlyPos="true"/>
   <parkingArea id="pa_-E54_0" lane="-E54_0" startPos="32.24" endPos="40.24" roadsideCapacity="2" friendlyPos="true" angle="90"/>
   <chargingStation id="cs_-E54_0" power="22000" efficiency="0.95" lane="-E54_0" startPos="32.24" endPos="40.24" chargeDelay="5" friendlyPos="true"/>
   <parkingArea id="pa_-E35_0" lane="-E35_0" startPos="23.13" endPos="31.13" roadsideCapacity="2" friendlyPos="true" angle="90"/>
   <chargingStation id="cs_-E35_0" power="22000" efficiency="0.95" lane="-E35_0" startPos="23.13" endPos="31.13" chargeDelay="5" friendlyPos="true"/>
   <parkingArea id="pa_-E59_0" lane="-E59_0" startPos="32.66" endPos="40.66" roadsideCapacity="2" friendlyPos="true" angle="90"/>
   <chargingStation id="cs_-E59_0" power="22000" efficiency="0.95" lane="-E59_0" startPos="32.66" endPos="40.66" chargeDelay="5" friendlyPos="true"/>
   <parkingArea id="pa_E54_0" lane="E54_0" startPos="32.24" endPos="40.24" roadsideCapacity="2" friendlyPos="true" angle="90"/>
   <chargingStation id="cs_E54_0" power="22000" efficiency="0.95" lane="E54_0" startPos="32.24" endPos="40.24" chargeDelay="5" friendlyPos="true"/>
</additional>
