<?xml version="1.0" encoding="UTF-8"?>

<!-- generated on 2025-07-11 08:18:29.954378 by randomTrips.py v1_23_0+0000-ad042bb7d28
<configuration>
    <net-file value="ev_test_grid/ev_test.net.xml"/>
    <output-trip-file value="config/trips.trips.xml"/>
    <route-file value="ev_test_grid/ev_test.rou.xml"/>
    <vehicle-class value="pedestrian"/>
    <end value="2.0"/>
    <period value="1.0"/>
</configuration>
-->

<!-- generated on 2025-07-11 08:18:29 by Eclipse SUMO duarouter Version 1.23.0
<duarouterConfiguration xmlns:xsi="http://www.w3.org/2001/XMLSchema-instance" xsi:noNamespaceSchemaLocation="http://sumo.dlr.de/xsd/duarouterConfiguration.xsd">

    <input>
        <net-file value="ev_test_grid/ev_test.net.xml"/>
        <route-files value="config/trips.trips.xml"/>
    </input>

    <output>
        <output-file value="ev_test_grid/ev_test.rou.xml"/>
        <alternatives-output value="NUL"/>
    </output>

    <time>
        <begin value="0"/>
        <end value="2.0"/>
    </time>

    <report>
        <no-warnings value="true"/>
        <ignore-errors value="true"/>
        <no-step-log value="true"/>
    </report>

</duarouterConfiguration>
-->

<routes xmlns:xsi="http://www.w3.org/2001/XMLSchema-instance" xsi:noNamespaceSchemaLocation="http://sumo.dlr.de/xsd/routes_file.xsd">
    <vType id="pedestrian" vClass="pedestrian"/>
    <vehicle id="0" type="pedestrian" depart="0.00">
        <route edges="E23 E43 -E51 E39 -E55 E35 -E59 E31 E32 -E13 -E12"/>
    </vehicle>
    <vehicle id="1" type="pedestrian" depart="1.00">
        <route edges="-E41 -E60 -E35"/>
    </vehicle>
</routes>
