<?xml version="1.0" ?>
<additional>
   <chargingStation id="cs_E45_0:2" power="22000" efficiency="0.95" lane="E45_0" startPos="26.905" endPos="36.905" chargeDelay="5" friendlyPos="true"/>
   <chargingStation id="cs_-E19_0:2" power="22000" efficiency="0.95" lane="-E19_0" startPos="26.97" endPos="36.97" chargeDelay="5" friendlyPos="true"/>
   <chargingStation id="cs_E44_0:2" power="22000" efficiency="0.95" lane="E44_0" startPos="27.075" endPos="37.075" chargeDelay="5" friendlyPos="true"/>
   <chargingStation id="cs_E34_0:2" power="22000" efficiency="0.95" lane="E34_0" startPos="26.435" endPos="36.435" chargeDelay="5" friendlyPos="true"/>
   <chargingStation id="cs_-E12_0:2" power="22000" efficiency="0.95" lane="-E12_0" startPos="27.865" endPos="37.864999999999995" chargeDelay="5" friendlyPos="true"/>
   <chargingStation id="cs_-E41_0:2" power="22000" efficiency="0.95" lane="-E41_0" startPos="27.545" endPos="37.545" chargeDelay="5" friendlyPos="true"/>
   <chargingStation id="cs_E64_0:2" power="22000" efficiency="0.95" lane="E64_0" startPos="36.57" endPos="46.57" chargeDelay="5" friendlyPos="true"/>
   <chargingStation id="cs_-E8_0:2" power="22000" efficiency="0.95" lane="-E8_0" startPos="28.755" endPos="38.754999999999995" chargeDelay="5" friendlyPos="true"/>
   <chargingStation id="cs_E55_0:2" power="22000" efficiency="0.95" lane="E55_0" startPos="36.57" endPos="46.57" chargeDelay="5" friendlyPos="true"/>
   <chargingStation id="cs_E17_0:2" power="22000" efficiency="0.95" lane="E17_0" startPos="39.275" endPos="49.275" chargeDelay="5" friendlyPos="true"/>
</additional>
