<?xml version="1.0" ?>
<additional>
   <chargingStation id="cs_-E50_0:2" power="22000" efficiency="0.95" lane="-E50_0" startPos="36.155" endPos="46.155" chargeDelay="5" friendlyPos="true"/>
   <chargingStation id="cs_-E32_0:2" power="22000" efficiency="0.95" lane="-E32_0" startPos="26.475" endPos="36.475" chargeDelay="5" friendlyPos="true"/>
   <chargingStation id="cs_-E13_0:2" power="22000" efficiency="0.95" lane="-E13_0" startPos="38.67" endPos="48.67" chargeDelay="5" friendlyPos="true"/>
   <chargingStation id="cs_-E8_0:2" power="22000" efficiency="0.95" lane="-E8_0" startPos="28.755" endPos="38.754999999999995" chargeDelay="5" friendlyPos="true"/>
   <chargingStation id="cs_-E47_0:2" power="22000" efficiency="0.95" lane="-E47_0" startPos="26.515" endPos="36.515" chargeDelay="5" friendlyPos="true"/>
</additional>
