<?xml version="1.0" encoding="UTF-8"?>

<!-- generated on 2025-05-16 08:36:47 by Eclipse SUMO netedit Version 1.23.0
-->

<routes xmlns:xsi="http://www.w3.org/2001/XMLSchema-instance" xsi:noNamespaceSchemaLocation="http://sumo.dlr.de/xsd/routes_file.xsd">
    <!-- Vehicles, persons and containers (sorted by depart) -->
    <flow id="f_0" begin="0.00" from="2-c1" to="c1-1" end="3600.00" vehsPerHour="1800"/>
    <flow id="f_1" begin="0.00" color="0,51,255" from="1-c1" to="c1-2" end="3600.00" vehsPerHour="1800"/>
    <flow id="f_2" begin="0.00" color="0,255,10" from="3-c1" to="c1-2" end="3600.00" vehsPerHour="500"/>
</routes>
