<?xml version="1.0" encoding="UTF-8"?>

<!-- generated on 2025-05-23 14:24:53 by Eclipse SUMO netedit Version 1.23.0
<neteditConfiguration xmlns:xsi="http://www.w3.org/2001/XMLSchema-instance" xsi:noNamespaceSchemaLocation="http://sumo.dlr.de/xsd/neteditConfiguration.xsd">

    <input>
        <additional-files value="D:\GitHub\Lab\IC\circles\circles.add.xml"/>
        <route-files value="D:\GitHub\Lab\IC\circles\circles.rou.xml"/>
        <sumo-net-file value="D:\GitHub\Lab\IC\tl\config\network.net.xml"/>
    </input>

    <output>
        <output-file value="D:\GitHub\Lab\IC\tl\config\network.net.xml"/>
    </output>

    <processing>
        <offset.disable-normalization value="true"/>
    </processing>

    <junctions>
        <no-turnarounds value="true"/>
    </junctions>

    <netedit>
        <new-network value="false"/>
    </netedit>

</neteditConfiguration>
-->

<net version="1.20" junctionCornerDetail="5" limitTurnSpeed="5.50" xmlns:xsi="http://www.w3.org/2001/XMLSchema-instance" xsi:noNamespaceSchemaLocation="http://sumo.dlr.de/xsd/net_file.xsd">

    <location netOffset="0.00,0.00" convBoundary="0.00,-100.00,300.00,0.00" origBoundary="10000000000.00,10000000000.00,-10000000000.00,-10000000000.00" projParameter="!"/>

    <edge id=":J1_0" function="internal">
        <lane id=":J1_0_0" index="0" speed="6.51" length="9.03" shape="92.80,-4.80 95.25,-5.15 97.00,-6.20 98.05,-7.95 98.40,-10.40"/>
    </edge>
    <edge id=":J1_1" function="internal">
        <lane id=":J1_1_0" index="0" speed="13.89" length="11.20" shape="92.80,-4.80 104.00,-4.80"/>
        <lane id=":J1_1_1" index="1" speed="13.89" length="11.20" shape="92.80,-1.60 104.00,-1.60"/>
    </edge>
    <edge id=":J2_0" function="internal">
        <lane id=":J2_0_0" index="0" speed="3.90" length="2.58" shape="98.40,-100.00 98.50,-100.70 98.80,-101.20 99.30,-101.50 100.00,-101.60"/>
    </edge>
    <edge id=":J3_0" function="internal">
        <lane id=":J3_0_0" index="0" speed="3.90" length="2.58" shape="200.00,-101.60 200.70,-101.50 201.20,-101.20 201.50,-100.70 201.60,-100.00"/>
    </edge>
    <edge id=":J4_0" function="internal">
        <lane id=":J4_0_0" index="0" speed="6.51" length="9.03" shape="201.60,-10.40 201.95,-7.95 203.00,-6.20 204.75,-5.15 207.20,-4.80"/>
    </edge>
    <edge id=":J4_1" function="internal">
        <lane id=":J4_1_0" index="0" speed="13.89" length="11.20" shape="196.00,-4.80 207.20,-4.80"/>
        <lane id=":J4_1_1" index="1" speed="13.89" length="11.20" shape="196.00,-1.60 207.20,-1.60"/>
    </edge>

    <edge id="E1" from="J1" to="J2" priority="-1">
        <lane id="E1_0" index="0" speed="13.89" length="89.60" shape="98.40,-10.40 98.40,-100.00"/>
    </edge>
    <edge id="E2" from="J2" to="J3" priority="-1">
        <lane id="E2_0" index="0" speed="13.89" length="100.00" shape="100.00,-101.60 200.00,-101.60"/>
    </edge>
    <edge id="E3" from="J3" to="J4" priority="-1">
        <lane id="E3_0" index="0" speed="13.89" length="89.60" shape="201.60,-100.00 201.60,-10.40"/>
    </edge>
    <edge id="closed" from="J1" to="J4" priority="-1">
        <lane id="closed_0" index="0" speed="13.89" length="92.00" shape="104.00,-4.80 196.00,-4.80"/>
        <lane id="closed_1" index="1" speed="13.89" length="92.00" shape="104.00,-1.60 196.00,-1.60"/>
    </edge>
    <edge id="destination" from="J4" to="J5" priority="-1">
        <lane id="destination_0" index="0" speed="13.89" length="92.80" shape="207.20,-4.80 300.00,-4.80"/>
        <lane id="destination_1" index="1" speed="13.89" length="92.80" shape="207.20,-1.60 300.00,-1.60"/>
    </edge>
    <edge id="origin" from="J0" to="J1" priority="-1">
        <lane id="origin_0" index="0" speed="13.89" length="92.80" shape="0.00,-4.80 92.80,-4.80"/>
        <lane id="origin_1" index="1" speed="13.89" length="92.80" shape="0.00,-1.60 92.80,-1.60"/>
    </edge>

    <junction id="J0" type="dead_end" x="0.00" y="0.00" incLanes="" intLanes="" shape="0.00,0.00 0.00,-6.40"/>
    <junction id="J1" type="priority" x="100.00" y="0.00" incLanes="origin_0 origin_1" intLanes=":J1_0_0 :J1_1_0 :J1_1_1" shape="104.00,0.00 104.00,-6.40 101.78,-6.84 101.00,-7.40 100.44,-8.18 100.11,-9.18 100.00,-10.40 96.80,-10.40 96.36,-8.18 95.80,-7.40 95.02,-6.84 94.02,-6.51 92.80,-6.40 92.80,0.00">
        <request index="0" response="000" foes="000" cont="0"/>
        <request index="1" response="000" foes="000" cont="0"/>
        <request index="2" response="000" foes="000" cont="0"/>
    </junction>
    <junction id="J2" type="priority" x="100.00" y="-100.00" incLanes="E1_0" intLanes=":J2_0_0" shape="96.80,-100.00 100.00,-100.00 100.00,-103.20 98.22,-102.84 97.60,-102.40 97.16,-101.78 96.89,-100.98">
        <request index="0" response="0" foes="0" cont="0"/>
    </junction>
    <junction id="J3" type="priority" x="200.00" y="-100.00" incLanes="E2_0" intLanes=":J3_0_0" shape="200.00,-100.00 203.20,-100.00 202.84,-101.78 202.40,-102.40 201.78,-102.84 200.98,-103.11 200.00,-103.20">
        <request index="0" response="0" foes="0" cont="0"/>
    </junction>
    <junction id="J4" type="priority" x="200.00" y="0.00" incLanes="E3_0 closed_0 closed_1" intLanes=":J4_0_0 :J4_1_0 :J4_1_1" shape="207.20,0.00 207.20,-6.40 204.98,-6.84 204.20,-7.40 203.64,-8.18 203.31,-9.18 203.20,-10.40 200.00,-10.40 199.56,-8.18 199.00,-7.40 198.22,-6.84 197.22,-6.51 196.00,-6.40 196.00,0.00">
        <request index="0" response="110" foes="110" cont="0"/>
        <request index="1" response="000" foes="001" cont="0"/>
        <request index="2" response="000" foes="001" cont="0"/>
    </junction>
    <junction id="J5" type="dead_end" x="300.00" y="0.00" incLanes="destination_0 destination_1" intLanes="" shape="300.00,-6.40 300.00,0.00"/>

    <connection from="E1" to="E2" fromLane="0" toLane="0" via=":J2_0_0" dir="l" state="M"/>
    <connection from="E2" to="E3" fromLane="0" toLane="0" via=":J3_0_0" dir="l" state="M"/>
    <connection from="E3" to="destination" fromLane="0" toLane="0" via=":J4_0_0" dir="r" state="m"/>
    <connection from="closed" to="destination" fromLane="0" toLane="0" via=":J4_1_0" dir="s" state="M"/>
    <connection from="closed" to="destination" fromLane="1" toLane="1" via=":J4_1_1" dir="s" state="M"/>
    <connection from="origin" to="E1" fromLane="0" toLane="0" via=":J1_0_0" dir="r" state="M"/>
    <connection from="origin" to="closed" fromLane="0" toLane="0" via=":J1_1_0" dir="s" state="M"/>
    <connection from="origin" to="closed" fromLane="1" toLane="1" via=":J1_1_1" dir="s" state="M"/>

    <connection from=":J1_0" to="E1" fromLane="0" toLane="0" dir="r" state="M"/>
    <connection from=":J1_1" to="closed" fromLane="0" toLane="0" dir="s" state="M"/>
    <connection from=":J1_1" to="closed" fromLane="1" toLane="1" dir="s" state="M"/>
    <connection from=":J2_0" to="E2" fromLane="0" toLane="0" dir="l" state="M"/>
    <connection from=":J3_0" to="E3" fromLane="0" toLane="0" dir="l" state="M"/>
    <connection from=":J4_0" to="destination" fromLane="0" toLane="0" dir="r" state="M"/>
    <connection from=":J4_1" to="destination" fromLane="0" toLane="0" dir="s" state="M"/>
    <connection from=":J4_1" to="destination" fromLane="1" toLane="1" dir="s" state="M"/>

</net>
