<?xml version="1.0" ?>
<additional>
   <parkingArea id="pa_E26_0" lane="E26_0" startPos="32.54" endPos="40.54" roadsideCapacity="2" friendlyPos="true" angle="90"/>
   <chargingStation id="cs_E26_0" power="22000" efficiency="0.95" lane="E26_0" startPos="32.54" endPos="40.54" chargeDelay="5" friendlyPos="true"/>
   <parkingArea id="pa_E56_0" lane="E56_0" startPos="32.645" endPos="40.645" roadsideCapacity="2" friendlyPos="true" angle="90"/>
   <chargingStation id="cs_E56_0" power="22000" efficiency="0.95" lane="E56_0" startPos="32.645" endPos="40.645" chargeDelay="5" friendlyPos="true"/>
   <parkingArea id="pa_E24_0" lane="E24_0" startPos="33.07" endPos="41.07" roadsideCapacity="2" friendlyPos="true" angle="90"/>
   <chargingStation id="cs_E24_0" power="22000" efficiency="0.95" lane="E24_0" startPos="33.07" endPos="41.07" chargeDelay="5" friendlyPos="true"/>
   <parkingArea id="pa_-E59_0" lane="-E59_0" startPos="32.66" endPos="40.66" roadsideCapacity="2" friendlyPos="true" angle="90"/>
   <chargingStation id="cs_-E59_0" power="22000" efficiency="0.95" lane="-E59_0" startPos="32.66" endPos="40.66" chargeDelay="5" friendlyPos="true"/>
</additional>
