<?xml version="1.0" encoding="UTF-8"?>

<!-- generated on 2025-07-10 17:35:24 by Eclipse SUMO netedit Version 1.23.0
<neteditConfiguration xmlns:xsi="http://www.w3.org/2001/XMLSchema-instance" xsi:noNamespaceSchemaLocation="http://sumo.dlr.de/xsd/neteditConfiguration.xsd">

    <input>
        <sumo-net-file value="D:\GitHub\IC-redes-veiculares\experiment\ev_test_grid\ev_test.net.xml"/>
    </input>

    <output>
        <output-file value="D:\GitHub\IC-redes-veiculares\experiment\ev_test_grid\ev_test.net.xml"/>
    </output>

    <processing>
        <geometry.min-radius.fix.railways value="false"/>
        <geometry.avoid-overlap value="false"/>
        <geometry.max-grade.fix value="false"/>
        <offset.disable-normalization value="true"/>
        <lefthand value="0"/>
    </processing>

    <junctions>
        <no-turnarounds value="true"/>
        <junctions.corner-detail value="5"/>
        <junctions.limit-turn-speed value="5.50"/>
        <rectangular-lane-cut value="0"/>
    </junctions>

    <pedestrian>
        <walkingareas value="0"/>
    </pedestrian>

</neteditConfiguration>
-->

<net version="1.20" junctionCornerDetail="5" limitTurnSpeed="5.50" avoidOverlap="0" xmlns:xsi="http://www.w3.org/2001/XMLSchema-instance" xsi:noNamespaceSchemaLocation="http://sumo.dlr.de/xsd/net_file.xsd">

    <location netOffset="0.00,0.00" convBoundary="-220.45,-170.32,220.88,170.70" origBoundary="-10000000000.00,-10000000000.00,10000000000.00,10000000000.00" projParameter="!"/>

    <edge id=":J10_0" function="internal">
        <lane id=":J10_0_0" index="0" speed="13.89" length="14.36" shape="-221.48,-27.43 -221.56,-41.78"/>
    </edge>
    <edge id=":J10_1" function="internal">
        <lane id=":J10_1_0" index="0" speed="8.00" length="4.04" shape="-221.48,-27.43 -220.94,-31.27 -220.86,-31.41"/>
    </edge>
    <edge id=":J10_6" function="internal">
        <lane id=":J10_6_0" index="0" speed="8.00" length="10.13" shape="-220.86,-31.41 -219.30,-34.02 -216.56,-35.68 -212.72,-36.25"/>
    </edge>
    <edge id=":J10_2" function="internal">
        <lane id=":J10_2_0" index="0" speed="6.51" length="9.02" shape="-212.71,-33.05 -215.15,-32.69 -216.89,-31.63 -217.93,-29.88 -218.28,-27.44"/>
    </edge>
    <edge id=":J10_3" function="internal">
        <lane id=":J10_3_0" index="0" speed="8.00" length="14.17" shape="-212.71,-33.05 -216.55,-33.58 -219.31,-35.21 -220.98,-37.94 -221.56,-41.78"/>
    </edge>
    <edge id=":J10_4" function="internal">
        <lane id=":J10_4_0" index="0" speed="6.51" length="9.02" shape="-218.36,-41.81 -217.99,-39.37 -216.93,-37.63 -215.17,-36.59 -212.72,-36.25"/>
    </edge>
    <edge id=":J10_5" function="internal">
        <lane id=":J10_5_0" index="0" speed="13.89" length="14.37" shape="-218.36,-41.81 -218.28,-27.44"/>
    </edge>
    <edge id=":J11_0" function="internal">
        <lane id=":J11_0_0" index="0" speed="13.89" length="14.47" shape="-221.99,-95.90 -222.01,-110.36"/>
    </edge>
    <edge id=":J11_1" function="internal">
        <lane id=":J11_1_0" index="0" speed="7.98" length="4.13" shape="-221.99,-95.90 -221.47,-99.77 -221.36,-99.96"/>
    </edge>
    <edge id=":J11_6" function="internal">
        <lane id=":J11_6_0" index="0" speed="7.98" length="10.11" shape="-221.36,-99.96 -219.83,-102.53 -217.08,-104.18 -213.21,-104.72"/>
    </edge>
    <edge id=":J11_2" function="internal">
        <lane id=":J11_2_0" index="0" speed="6.48" length="9.03" shape="-213.22,-101.52 -215.67,-101.18 -217.42,-100.13 -218.46,-98.38 -218.79,-95.92"/>
    </edge>
    <edge id=":J11_3" function="internal">
        <lane id=":J11_3_0" index="0" speed="8.00" length="14.23" shape="-213.22,-101.52 -217.08,-102.09 -219.84,-103.75 -221.48,-106.51 -222.01,-110.36"/>
    </edge>
    <edge id=":J11_4" function="internal">
        <lane id=":J11_4_0" index="0" speed="6.51" length="9.06" shape="-218.81,-110.35 -218.47,-107.89 -217.43,-106.14 -215.67,-105.08 -213.21,-104.72"/>
    </edge>
    <edge id=":J11_5" function="internal">
        <lane id=":J11_5_0" index="0" speed="13.89" length="14.42" shape="-218.81,-110.35 -218.79,-95.92"/>
    </edge>
    <edge id=":J12_0" function="internal">
        <lane id=":J12_0_0" index="0" speed="3.91" length="2.55" shape="-216.90,-167.67 -217.59,-167.56 -218.08,-167.26 -218.38,-166.77 -218.48,-166.08"/>
    </edge>
    <edge id=":J12_1" function="internal">
        <lane id=":J12_1_0" index="0" speed="6.08" length="7.64" shape="-221.68,-166.10 -221.37,-168.16 -220.48,-169.64 -219.00,-170.55 -216.94,-170.87"/>
    </edge>
    <edge id=":J13_0" function="internal">
        <lane id=":J13_0_0" index="0" speed="6.53" length="9.10" shape="-133.89,-163.01 -134.28,-165.50 -135.35,-167.26 -137.12,-168.30 -139.57,-168.63"/>
    </edge>
    <edge id=":J13_1" function="internal">
        <lane id=":J13_1_0" index="0" speed="7.96" length="14.29" shape="-133.89,-163.01 -133.39,-166.91 -131.76,-169.68 -129.00,-171.32 -125.10,-171.84"/>
    </edge>
    <edge id=":J13_2" function="internal">
        <lane id=":J13_2_0" index="0" speed="6.45" length="9.03" shape="-125.13,-168.64 -127.60,-168.32 -129.34,-167.28 -130.37,-165.52 -130.69,-163.06"/>
    </edge>
    <edge id=":J13_3" function="internal">
        <lane id=":J13_3_0" index="0" speed="13.89" length="14.44" shape="-125.13,-168.64 -139.57,-168.63"/>
    </edge>
    <edge id=":J13_4" function="internal">
        <lane id=":J13_4_0" index="0" speed="13.89" length="14.51" shape="-139.61,-171.83 -125.10,-171.84"/>
    </edge>
    <edge id=":J13_5" function="internal">
        <lane id=":J13_5_0" index="0" speed="8.02" length="4.14" shape="-139.61,-171.83 -135.76,-171.32 -135.54,-171.19"/>
    </edge>
    <edge id=":J13_6" function="internal">
        <lane id=":J13_6_0" index="0" speed="8.02" length="10.12" shape="-135.54,-171.19 -132.98,-169.69 -131.30,-166.94 -130.69,-163.06"/>
    </edge>
    <edge id=":J14_0" function="internal">
        <lane id=":J14_0_0" index="0" speed="6.55" length="9.08" shape="-45.65,-162.22 -46.01,-164.69 -47.06,-166.47 -48.81,-167.54 -51.25,-167.92"/>
    </edge>
    <edge id=":J14_1" function="internal">
        <lane id=":J14_1_0" index="0" speed="7.99" length="14.21" shape="-45.65,-162.22 -45.12,-166.08 -43.47,-168.84 -40.72,-170.49 -36.86,-171.03"/>
    </edge>
    <edge id=":J14_2" function="internal">
        <lane id=":J14_2_0" index="0" speed="6.50" length="9.03" shape="-36.86,-167.83 -39.32,-167.48 -41.07,-166.44 -42.11,-164.69 -42.45,-162.23"/>
    </edge>
    <edge id=":J14_3" function="internal">
        <lane id=":J14_3_0" index="0" speed="13.89" length="14.39" shape="-36.86,-167.83 -51.25,-167.92"/>
    </edge>
    <edge id=":J14_4" function="internal">
        <lane id=":J14_4_0" index="0" speed="13.89" length="14.36" shape="-51.22,-171.12 -36.86,-171.03"/>
    </edge>
    <edge id=":J14_5" function="internal">
        <lane id=":J14_5_0" index="0" speed="8.04" length="4.02" shape="-51.22,-171.12 -47.40,-170.53 -47.27,-170.45"/>
    </edge>
    <edge id=":J14_6" function="internal">
        <lane id=":J14_6_0" index="0" speed="8.04" length="10.17" shape="-47.27,-170.45 -44.66,-168.85 -43.01,-166.09 -42.45,-162.23"/>
    </edge>
    <edge id=":J15_0" function="internal">
        <lane id=":J15_0_0" index="0" speed="6.53" length="9.03" shape="50.77,-167.68 48.33,-167.31 46.58,-166.25 45.53,-164.49 45.19,-162.04"/>
    </edge>
    <edge id=":J15_1" function="internal">
        <lane id=":J15_1_0" index="0" speed="13.89" length="14.37" shape="50.77,-167.68 36.40,-167.65"/>
    </edge>
    <edge id=":J15_2" function="internal">
        <lane id=":J15_2_0" index="0" speed="13.89" length="14.34" shape="36.41,-170.85 50.74,-170.88"/>
    </edge>
    <edge id=":J15_3" function="internal">
        <lane id=":J15_3_0" index="0" speed="8.00" length="4.03" shape="36.41,-170.85 40.25,-170.29 40.37,-170.21"/>
    </edge>
    <edge id=":J15_6" function="internal">
        <lane id=":J15_6_0" index="0" speed="8.00" length="10.15" shape="40.37,-170.21 42.99,-168.63 44.64,-165.89 45.19,-162.04"/>
    </edge>
    <edge id=":J15_4" function="internal">
        <lane id=":J15_4_0" index="0" speed="6.51" length="9.02" shape="41.99,-162.04 41.64,-164.49 40.59,-166.24 38.84,-167.29 36.40,-167.65"/>
    </edge>
    <edge id=":J15_5" function="internal">
        <lane id=":J15_5_0" index="0" speed="8.02" length="14.16" shape="41.99,-162.04 42.53,-165.89 44.18,-168.64 46.91,-170.30 50.74,-170.88"/>
    </edge>
    <edge id=":J16_0" function="internal">
        <lane id=":J16_0_0" index="0" speed="6.51" length="9.05" shape="130.34,-162.64 129.98,-165.10 128.92,-166.85 127.16,-167.89 124.71,-168.23"/>
    </edge>
    <edge id=":J16_1" function="internal">
        <lane id=":J16_1_0" index="0" speed="7.99" length="14.23" shape="130.34,-162.64 130.87,-166.51 132.52,-169.27 135.28,-170.91 139.14,-171.45"/>
    </edge>
    <edge id=":J16_2" function="internal">
        <lane id=":J16_2_0" index="0" speed="6.49" length="9.03" shape="139.13,-168.25 136.67,-167.91 134.92,-166.86 133.88,-165.11 133.54,-162.66"/>
    </edge>
    <edge id=":J16_3" function="internal">
        <lane id=":J16_3_0" index="0" speed="13.89" length="14.42" shape="139.13,-168.25 124.71,-168.23"/>
    </edge>
    <edge id=":J16_4" function="internal">
        <lane id=":J16_4_0" index="0" speed="13.89" length="14.46" shape="124.68,-171.43 139.14,-171.45"/>
    </edge>
    <edge id=":J16_5" function="internal">
        <lane id=":J16_5_0" index="0" speed="8.00" length="4.11" shape="124.68,-171.43 128.54,-170.90 128.73,-170.79"/>
    </edge>
    <edge id=":J16_6" function="internal">
        <lane id=":J16_6_0" index="0" speed="8.00" length="10.11" shape="128.73,-170.79 131.31,-169.27 132.97,-166.52 133.54,-162.66"/>
    </edge>
    <edge id=":J17_0" function="internal">
        <lane id=":J17_0_0" index="0" speed="6.08" length="7.73" shape="217.69,-171.06 219.79,-170.75 221.28,-169.85 222.17,-168.34 222.47,-166.25"/>
    </edge>
    <edge id=":J17_1" function="internal">
        <lane id=":J17_1_0" index="0" speed="3.90" length="2.58" shape="219.27,-166.26 219.17,-166.96 218.87,-167.46 218.37,-167.76 217.67,-167.86"/>
    </edge>
    <edge id=":J18_0" function="internal">
        <lane id=":J18_0_0" index="0" speed="13.89" length="14.47" shape="222.28,-109.21 222.13,-94.73"/>
    </edge>
    <edge id=":J18_1" function="internal">
        <lane id=":J18_1_0" index="0" speed="8.01" length="4.12" shape="222.28,-109.21 221.72,-105.36 221.60,-105.16"/>
    </edge>
    <edge id=":J18_6" function="internal">
        <lane id=":J18_6_0" index="0" speed="8.01" length="10.11" shape="221.60,-105.16 220.05,-102.61 217.28,-100.97 213.41,-100.44"/>
    </edge>
    <edge id=":J18_2" function="internal">
        <lane id=":J18_2_0" index="0" speed="6.52" length="9.07" shape="213.42,-103.64 215.89,-103.98 217.66,-105.02 218.72,-106.77 219.08,-109.22"/>
    </edge>
    <edge id=":J18_3" function="internal">
        <lane id=":J18_3_0" index="0" speed="7.98" length="14.25" shape="213.42,-103.64 217.29,-103.07 220.03,-101.40 221.64,-98.62 222.13,-94.73"/>
    </edge>
    <edge id=":J18_4" function="internal">
        <lane id=":J18_4_0" index="0" speed="6.48" length="9.03" shape="218.93,-94.79 218.62,-97.25 217.60,-99.02 215.86,-100.08 213.41,-100.44"/>
    </edge>
    <edge id=":J18_5" function="internal">
        <lane id=":J18_5_0" index="0" speed="13.89" length="14.42" shape="218.93,-94.79 219.08,-109.22"/>
    </edge>
    <edge id=":J19_0" function="internal">
        <lane id=":J19_0_0" index="0" speed="6.51" length="8.94" shape="217.91,-26.63 217.53,-29.05 216.47,-30.77 214.73,-31.81 212.31,-32.15"/>
    </edge>
    <edge id=":J19_1" function="internal">
        <lane id=":J19_1_0" index="0" speed="13.89" length="14.23" shape="217.91,-26.63 217.93,-40.87"/>
    </edge>
    <edge id=":J19_2" function="internal">
        <lane id=":J19_2_0" index="0" speed="13.89" length="14.13" shape="221.13,-40.81 221.10,-26.68"/>
    </edge>
    <edge id=":J19_3" function="internal">
        <lane id=":J19_3_0" index="0" speed="8.02" length="3.84" shape="221.13,-40.81 220.52,-37.02"/>
    </edge>
    <edge id=":J19_6" function="internal">
        <lane id=":J19_6_0" index="0" speed="8.02" length="10.21" shape="220.52,-37.02 218.85,-34.32 216.11,-32.69 212.31,-32.15"/>
    </edge>
    <edge id=":J19_4" function="internal">
        <lane id=":J19_4_0" index="0" speed="6.52" length="8.95" shape="212.30,-35.35 214.73,-35.70 216.48,-36.73 217.54,-38.45 217.93,-40.87"/>
    </edge>
    <edge id=":J19_5" function="internal">
        <lane id=":J19_5_0" index="0" speed="8.00" length="14.05" shape="212.30,-35.35 216.11,-34.81 218.84,-33.18 220.51,-30.47 221.10,-26.68"/>
    </edge>
    <edge id=":J20_0" function="internal">
        <lane id=":J20_0_0" index="0" speed="13.89" length="14.49" shape="221.87,27.28 221.95,41.76"/>
    </edge>
    <edge id=":J20_1" function="internal">
        <lane id=":J20_1_0" index="0" speed="7.97" length="4.15" shape="221.87,27.28 221.37,31.16 221.26,31.36"/>
    </edge>
    <edge id=":J20_6" function="internal">
        <lane id=":J20_6_0" index="0" speed="7.97" length="10.11" shape="221.26,31.36 219.75,33.93 217.00,35.59 213.13,36.14"/>
    </edge>
    <edge id=":J20_2" function="internal">
        <lane id=":J20_2_0" index="0" speed="6.47" length="9.03" shape="213.13,32.94 215.59,32.59 217.33,31.54 218.36,29.78 218.67,27.32"/>
    </edge>
    <edge id=":J20_3" function="internal">
        <lane id=":J20_3_0" index="0" speed="8.01" length="14.23" shape="213.13,32.94 217.00,33.50 219.76,35.15 221.41,37.91 221.95,41.76"/>
    </edge>
    <edge id=":J20_4" function="internal">
        <lane id=":J20_4_0" index="0" speed="6.51" length="9.06" shape="218.75,41.75 218.41,39.30 217.36,37.55 215.60,36.49 213.13,36.14"/>
    </edge>
    <edge id=":J20_5" function="internal">
        <lane id=":J20_5_0" index="0" speed="13.89" length="14.43" shape="218.75,41.75 218.67,27.32"/>
    </edge>
    <edge id=":J21_0" function="internal">
        <lane id=":J21_0_0" index="0" speed="6.52" length="9.02" shape="218.61,110.15 218.24,107.72 217.17,105.98 215.42,104.94 212.97,104.59"/>
    </edge>
    <edge id=":J21_1" function="internal">
        <lane id=":J21_1_0" index="0" speed="13.89" length="14.34" shape="218.61,110.15 218.56,95.81"/>
    </edge>
    <edge id=":J21_2" function="internal">
        <lane id=":J21_2_0" index="0" speed="13.89" length="14.30" shape="221.76,95.82 221.81,110.12"/>
    </edge>
    <edge id=":J21_3" function="internal">
        <lane id=":J21_3_0" index="0" speed="8.00" length="4.01" shape="221.76,95.82 221.20,99.65 221.13,99.77"/>
    </edge>
    <edge id=":J21_6" function="internal">
        <lane id=":J21_6_0" index="0" speed="8.00" length="10.14" shape="221.13,99.77 219.55,102.39 216.81,104.04 212.97,104.59"/>
    </edge>
    <edge id=":J21_4" function="internal">
        <lane id=":J21_4_0" index="0" speed="6.51" length="9.00" shape="212.97,101.39 215.41,101.04 217.15,99.99 218.21,98.25 218.56,95.81"/>
    </edge>
    <edge id=":J21_5" function="internal">
        <lane id=":J21_5_0" index="0" speed="8.02" length="14.14" shape="212.97,101.39 216.80,101.93 219.56,103.57 221.23,106.30 221.81,110.12"/>
    </edge>
    <edge id=":J22_0" function="internal">
        <lane id=":J22_0_0" index="0" speed="6.08" length="7.84" shape="222.42,167.43 222.14,169.56 221.24,171.08 219.72,171.99 217.59,172.28"/>
    </edge>
    <edge id=":J22_1" function="internal">
        <lane id=":J22_1_0" index="0" speed="3.90" length="2.61" shape="217.61,169.08 218.32,168.98 218.83,168.68 219.13,168.17 219.22,167.46"/>
    </edge>
    <edge id=":J23_0" function="internal">
        <lane id=":J23_0_0" index="0" speed="13.89" length="14.38" shape="138.47,171.76 124.09,171.70"/>
    </edge>
    <edge id=":J23_1" function="internal">
        <lane id=":J23_1_0" index="0" speed="8.00" length="4.05" shape="138.47,171.76 134.62,171.19 134.48,171.10"/>
    </edge>
    <edge id=":J23_6" function="internal">
        <lane id=":J23_6_0" index="0" speed="8.00" length="10.15" shape="134.48,171.10 131.88,169.52 130.25,166.75 129.73,162.90"/>
    </edge>
    <edge id=":J23_2" function="internal">
        <lane id=":J23_2_0" index="0" speed="6.50" length="9.03" shape="132.93,162.92 133.26,165.38 134.30,167.13 136.04,168.19 138.49,168.56"/>
    </edge>
    <edge id=":J23_3" function="internal">
        <lane id=":J23_3_0" index="0" speed="8.02" length="14.19" shape="132.93,162.92 132.35,166.77 130.69,169.51 127.93,171.16 124.09,171.70"/>
    </edge>
    <edge id=":J23_4" function="internal">
        <lane id=":J23_4_0" index="0" speed="6.53" length="9.05" shape="124.10,168.50 126.55,168.15 128.30,167.10 129.36,165.35 129.73,162.90"/>
    </edge>
    <edge id=":J23_5" function="internal">
        <lane id=":J23_5_0" index="0" speed="13.89" length="14.39" shape="124.10,168.50 138.49,168.56"/>
    </edge>
    <edge id=":J24_0" function="internal">
        <lane id=":J24_0_0" index="0" speed="13.89" length="14.44" shape="49.95,171.51 35.52,171.42"/>
    </edge>
    <edge id=":J24_1" function="internal">
        <lane id=":J24_1_0" index="0" speed="7.99" length="4.10" shape="49.95,171.51 46.10,170.95 45.92,170.85"/>
    </edge>
    <edge id=":J24_6" function="internal">
        <lane id=":J24_6_0" index="0" speed="7.99" length="10.11" shape="45.92,170.85 43.35,169.29 41.72,166.53 41.20,162.67"/>
    </edge>
    <edge id=":J24_2" function="internal">
        <lane id=":J24_2_0" index="0" speed="6.50" length="9.03" shape="44.40,162.69 44.73,165.15 45.77,166.90 47.51,167.96 49.96,168.31"/>
    </edge>
    <edge id=":J24_3" function="internal">
        <lane id=":J24_3_0" index="0" speed="8.00" length="14.21" shape="44.40,162.69 43.82,166.55 42.14,169.29 39.38,170.91 35.52,171.42"/>
    </edge>
    <edge id=":J24_4" function="internal">
        <lane id=":J24_4_0" index="0" speed="6.51" length="9.04" shape="35.55,168.22 38.00,167.90 39.76,166.86 40.83,165.12 41.20,162.67"/>
    </edge>
    <edge id=":J24_5" function="internal">
        <lane id=":J24_5_0" index="0" speed="13.89" length="14.41" shape="35.55,168.22 49.96,168.31"/>
    </edge>
    <edge id=":J25_0" function="internal">
        <lane id=":J25_0_0" index="0" speed="13.89" length="14.32" shape="-36.89,170.70 -51.21,170.64"/>
    </edge>
    <edge id=":J25_1" function="internal">
        <lane id=":J25_1_0" index="0" speed="8.00" length="4.02" shape="-36.89,170.70 -40.72,170.11 -40.84,170.04"/>
    </edge>
    <edge id=":J25_6" function="internal">
        <lane id=":J25_6_0" index="0" speed="8.00" length="10.16" shape="-40.84,170.04 -43.45,168.44 -45.08,165.68 -45.60,161.83"/>
    </edge>
    <edge id=":J25_2" function="internal">
        <lane id=":J25_2_0" index="0" speed="6.51" length="9.02" shape="-42.40,161.85 -42.07,164.30 -41.03,166.06 -39.30,167.12 -36.85,167.50"/>
    </edge>
    <edge id=":J25_3" function="internal">
        <lane id=":J25_3_0" index="0" speed="8.02" length="14.16" shape="-42.40,161.85 -42.97,165.69 -44.64,168.44 -47.38,170.09 -51.21,170.64"/>
    </edge>
    <edge id=":J25_4" function="internal">
        <lane id=":J25_4_0" index="0" speed="6.53" length="9.04" shape="-51.22,167.44 -48.78,167.09 -47.02,166.03 -45.97,164.28 -45.60,161.83"/>
    </edge>
    <edge id=":J25_5" function="internal">
        <lane id=":J25_5_0" index="0" speed="13.89" length="14.36" shape="-51.22,167.44 -36.85,167.50"/>
    </edge>
    <edge id=":J26_0" function="internal">
        <lane id=":J26_0_0" index="0" speed="13.89" length="14.36" shape="-124.29,170.83 -138.65,170.92"/>
    </edge>
    <edge id=":J26_1" function="internal">
        <lane id=":J26_1_0" index="0" speed="8.00" length="4.04" shape="-124.29,170.83 -128.14,170.28 -128.27,170.21"/>
    </edge>
    <edge id=":J26_6" function="internal">
        <lane id=":J26_6_0" index="0" speed="8.00" length="10.17" shape="-128.27,170.21 -130.90,168.64 -132.55,165.89 -133.09,162.03"/>
    </edge>
    <edge id=":J26_2" function="internal">
        <lane id=":J26_2_0" index="0" speed="6.50" length="9.03" shape="-129.89,162.03 -129.55,164.49 -128.50,166.23 -126.75,167.28 -124.30,167.63"/>
    </edge>
    <edge id=":J26_3" function="internal">
        <lane id=":J26_3_0" index="0" speed="8.03" length="14.19" shape="-129.89,162.03 -130.45,165.89 -132.09,168.65 -134.82,170.33 -138.65,170.92"/>
    </edge>
    <edge id=":J26_4" function="internal">
        <lane id=":J26_4_0" index="0" speed="6.55" length="9.07" shape="-138.68,167.72 -136.24,167.34 -134.49,166.27 -133.45,164.50 -133.09,162.03"/>
    </edge>
    <edge id=":J26_5" function="internal">
        <lane id=":J26_5_0" index="0" speed="13.89" length="14.39" shape="-138.68,167.72 -124.30,167.63"/>
    </edge>
    <edge id=":J27_0" function="internal">
        <lane id=":J27_0_0" index="0" speed="6.48" length="9.03" shape="-124.21,103.44 -126.66,103.76 -128.42,104.79 -129.48,106.54 -129.83,108.99"/>
    </edge>
    <edge id=":J27_1" function="internal">
        <lane id=":J27_1_0" index="0" speed="13.89" length="14.43" shape="-124.21,103.44 -138.63,103.39"/>
    </edge>
    <edge id=":J27_2" function="internal">
        <lane id=":J27_2_0" index="0" speed="8.00" length="14.22" shape="-124.21,103.44 -128.06,102.84 -130.80,101.16 -132.42,98.38 -132.92,94.52"/>
    </edge>
    <edge id=":J27_3" function="internal">
        <lane id=":J27_3_0" index="0" speed="6.51" length="9.05" shape="-129.72,94.57 -129.40,97.02 -128.37,98.79 -126.63,99.86 -124.17,100.24"/>
    </edge>
    <edge id=":J27_4" function="internal">
        <lane id=":J27_4_0" index="0" speed="13.89" length="14.42" shape="-129.72,94.57 -129.83,108.99"/>
    </edge>
    <edge id=":J27_5" function="internal">
        <lane id=":J27_5_0" index="0" speed="8.07" length="4.02" shape="-129.72,94.57 -130.32,98.41 -130.39,98.53"/>
    </edge>
    <edge id=":J27_12" function="internal">
        <lane id=":J27_12_0" index="0" speed="8.07" length="10.22" shape="-130.39,98.53 -132.01,101.16 -134.78,102.82 -138.63,103.39"/>
    </edge>
    <edge id=":J27_6" function="internal">
        <lane id=":J27_6_0" index="0" speed="6.59" length="9.15" shape="-138.65,100.19 -136.17,99.83 -134.39,98.76 -133.31,96.99 -132.92,94.52"/>
    </edge>
    <edge id=":J27_7" function="internal">
        <lane id=":J27_7_0" index="0" speed="13.89" length="14.48" shape="-138.65,100.19 -124.17,100.24"/>
    </edge>
    <edge id=":J27_8" function="internal">
        <lane id=":J27_8_0" index="0" speed="7.99" length="14.23" shape="-138.65,100.19 -134.79,100.72 -132.03,102.37 -130.38,105.12 -129.83,108.99"/>
    </edge>
    <edge id=":J27_9" function="internal">
        <lane id=":J27_9_0" index="0" speed="6.50" length="9.04" shape="-133.03,108.99 -133.38,106.53 -134.43,104.78 -136.18,103.73 -138.63,103.39"/>
    </edge>
    <edge id=":J27_10" function="internal">
        <lane id=":J27_10_0" index="0" speed="13.89" length="14.46" shape="-133.03,108.99 -132.92,94.52"/>
    </edge>
    <edge id=":J27_11" function="internal">
        <lane id=":J27_11_0" index="0" speed="7.98" length="4.12" shape="-133.03,108.99 -132.47,105.12 -132.36,104.93"/>
    </edge>
    <edge id=":J27_13" function="internal">
        <lane id=":J27_13_0" index="0" speed="7.98" length="10.11" shape="-132.36,104.93 -130.81,102.37 -128.04,100.75 -124.17,100.24"/>
    </edge>
    <edge id=":J28_0" function="internal">
        <lane id=":J28_0_0" index="0" speed="6.50" length="9.05" shape="-123.28,35.54 -125.74,35.84 -127.50,36.86 -128.58,38.61 -128.97,41.06"/>
    </edge>
    <edge id=":J28_1" function="internal">
        <lane id=":J28_1_0" index="0" speed="13.89" length="14.43" shape="-123.28,35.54 -137.71,35.40"/>
    </edge>
    <edge id=":J28_2" function="internal">
        <lane id=":J28_2_0" index="0" speed="8.13" length="4.00" shape="-123.28,35.54 -127.12,34.91 -127.21,34.86"/>
    </edge>
    <edge id=":J28_12" function="internal">
        <lane id=":J28_12_0" index="0" speed="8.13" length="10.29" shape="-127.21,34.86 -129.88,33.21 -131.56,30.43 -132.16,26.58"/>
    </edge>
    <edge id=":J28_3" function="internal">
        <lane id=":J28_3_0" index="0" speed="6.66" length="9.25" shape="-128.96,26.53 -128.58,29.03 -127.49,30.83 -125.70,31.93 -123.21,32.34"/>
    </edge>
    <edge id=":J28_4" function="internal">
        <lane id=":J28_4_0" index="0" speed="13.89" length="14.53" shape="-128.96,26.53 -128.97,41.06"/>
    </edge>
    <edge id=":J28_5" function="internal">
        <lane id=":J28_5_0" index="0" speed="7.98" length="14.25" shape="-128.96,26.53 -129.47,30.41 -131.09,33.18 -133.84,34.84 -137.71,35.40"/>
    </edge>
    <edge id=":J28_6" function="internal">
        <lane id=":J28_6_0" index="0" speed="6.48" length="9.04" shape="-137.71,32.20 -135.26,31.85 -133.51,30.79 -132.48,29.03 -132.16,26.58"/>
    </edge>
    <edge id=":J28_7" function="internal">
        <lane id=":J28_7_0" index="0" speed="13.89" length="14.50" shape="-137.71,32.20 -123.21,32.34"/>
    </edge>
    <edge id=":J28_8" function="internal">
        <lane id=":J28_8_0" index="0" speed="7.98" length="4.16" shape="-137.71,32.20 -133.84,32.75 -133.63,32.88"/>
    </edge>
    <edge id=":J28_13" function="internal">
        <lane id=":J28_13_0" index="0" speed="7.98" length="10.09" shape="-133.63,32.88 -131.09,34.41 -129.47,37.18 -128.97,41.06"/>
    </edge>
    <edge id=":J28_9" function="internal">
        <lane id=":J28_9_0" index="0" speed="6.48" length="9.03" shape="-132.17,41.02 -132.48,38.56 -133.51,36.80 -135.26,35.75 -137.71,35.40"/>
    </edge>
    <edge id=":J28_10" function="internal">
        <lane id=":J28_10_0" index="0" speed="13.89" length="14.44" shape="-132.17,41.02 -132.16,26.58"/>
    </edge>
    <edge id=":J28_11" function="internal">
        <lane id=":J28_11_0" index="0" speed="8.00" length="14.24" shape="-132.17,41.02 -131.56,37.16 -129.87,34.42 -127.08,32.82 -123.21,32.34"/>
    </edge>
    <edge id=":J29_0" function="internal">
        <lane id=":J29_0_0" index="0" speed="6.57" length="9.15" shape="-132.92,-27.78 -133.30,-30.28 -134.38,-32.07 -136.14,-33.13 -138.59,-33.48"/>
    </edge>
    <edge id=":J29_1" function="internal">
        <lane id=":J29_1_0" index="0" speed="13.89" length="14.52" shape="-132.92,-27.78 -133.02,-42.30"/>
    </edge>
    <edge id=":J29_2" function="internal">
        <lane id=":J29_2_0" index="0" speed="7.94" length="4.15" shape="-132.92,-27.78 -132.41,-31.69 -132.31,-31.87"/>
    </edge>
    <edge id=":J29_12" function="internal">
        <lane id=":J29_12_0" index="0" speed="7.94" length="10.19" shape="-132.31,-31.87 -130.77,-34.46 -127.99,-36.08 -124.07,-36.55"/>
    </edge>
    <edge id=":J29_3" function="internal">
        <lane id=":J29_3_0" index="0" speed="6.43" length="9.03" shape="-124.14,-33.35 -126.61,-33.06 -128.36,-32.03 -129.40,-30.29 -129.72,-27.82"/>
    </edge>
    <edge id=":J29_4" function="internal">
        <lane id=":J29_4_0" index="0" speed="13.89" length="14.45" shape="-124.14,-33.35 -138.59,-33.48"/>
    </edge>
    <edge id=":J29_5" function="internal">
        <lane id=":J29_5_0" index="0" speed="8.10" length="14.30" shape="-124.14,-33.35 -128.03,-33.99 -130.80,-35.69 -132.47,-38.46 -133.02,-42.30"/>
    </edge>
    <edge id=":J29_6" function="internal">
        <lane id=":J29_6_0" index="0" speed="6.62" length="9.23" shape="-129.82,-42.30 -129.46,-39.84 -128.38,-38.05 -126.58,-36.96 -124.07,-36.55"/>
    </edge>
    <edge id=":J29_7" function="internal">
        <lane id=":J29_7_0" index="0" speed="13.89" length="14.48" shape="-129.82,-42.30 -129.72,-27.82"/>
    </edge>
    <edge id=":J29_8" function="internal">
        <lane id=":J29_8_0" index="0" speed="8.01" length="4.01" shape="-129.82,-42.30 -130.37,-38.46 -130.44,-38.35"/>
    </edge>
    <edge id=":J29_13" function="internal">
        <lane id=":J29_13_0" index="0" speed="8.01" length="10.16" shape="-130.44,-38.35 -132.01,-35.71 -134.76,-34.05 -138.59,-33.48"/>
    </edge>
    <edge id=":J29_9" function="internal">
        <lane id=":J29_9_0" index="0" speed="6.52" length="9.03" shape="-138.61,-36.68 -136.17,-37.04 -134.42,-38.10 -133.37,-39.85 -133.02,-42.30"/>
    </edge>
    <edge id=":J29_10" function="internal">
        <lane id=":J29_10_0" index="0" speed="13.89" length="14.55" shape="-138.61,-36.68 -124.07,-36.55"/>
    </edge>
    <edge id=":J29_11" function="internal">
        <lane id=":J29_11_0" index="0" speed="8.05" length="14.29" shape="-138.61,-36.68 -134.77,-36.14 -132.00,-34.49 -130.32,-31.72 -129.72,-27.82"/>
    </edge>
    <edge id=":J30_0" function="internal">
        <lane id=":J30_0_0" index="0" speed="6.54" length="9.10" shape="-133.02,-95.64 -133.38,-98.09 -134.44,-99.85 -136.21,-100.90 -138.68,-101.26"/>
    </edge>
    <edge id=":J30_1" function="internal">
        <lane id=":J30_1_0" index="0" speed="13.89" length="14.43" shape="-133.02,-95.64 -133.13,-110.07"/>
    </edge>
    <edge id=":J30_2" function="internal">
        <lane id=":J30_2_0" index="0" speed="8.00" length="14.19" shape="-133.02,-95.64 -132.47,-99.49 -130.82,-102.24 -128.07,-103.89 -124.22,-104.44"/>
    </edge>
    <edge id=":J30_3" function="internal">
        <lane id=":J30_3_0" index="0" speed="6.51" length="9.03" shape="-124.22,-101.24 -126.67,-100.89 -128.42,-99.84 -129.47,-98.09 -129.82,-95.64"/>
    </edge>
    <edge id=":J30_4" function="internal">
        <lane id=":J30_4_0" index="0" speed="13.89" length="14.46" shape="-124.22,-101.24 -138.68,-101.26"/>
    </edge>
    <edge id=":J30_5" function="internal">
        <lane id=":J30_5_0" index="0" speed="8.06" length="4.07" shape="-124.22,-101.24 -128.07,-101.79 -128.23,-101.89"/>
    </edge>
    <edge id=":J30_12" function="internal">
        <lane id=":J30_12_0" index="0" speed="8.06" length="10.18" shape="-128.23,-101.89 -130.84,-103.45 -132.52,-106.21 -133.13,-110.07"/>
    </edge>
    <edge id=":J30_6" function="internal">