<routes xmlns:xsi="http://www.w3.org/2001/XMLSchema-instance" xsi:noNamespaceSchemaLocation="http://sumo.dlr.de/xsd/routes_file.xsd">
    <vType id="electric_vehicle" length="5" accel="2.6" decel="4.5" sigma="0.5" maxSpeed="50" mass="1036.00" color="0,1,0" emissionClass="Energy/default"><param key="has.battery.device" value="true" /><param key="device.battery.capacity" value="30000" /><param key="device.battery.maximumChargeRate" value="150000" /><param key="maximumPower" value="150000" /><param key="airDragCoefficient" value="0.35" /><param key="constantPowerIntake" value="100" /><param key="frontSurfaceArea" value="2.6" /><param key="propulsionEfficiency" value="0.98" /><param key="radialDragCoefficient" value="0.1" /><param key="recuperationEfficiency" value="0.96" /><param key="rollDragCoefficient" value="0.01" /><param key="stoppingThreshold" value="0.1" /><param key="rotatingMass" value="40" /></vType><vType id="normal_vehicle" length="5" accel="2.6" decel="4.5" sigma="0.5" maxSpeed="50" color="1,1,0" /><vType id="veh__pedestrian" vClass="pedestrian" />
    <vehicle id="veh_0" type="electric_vehicle" depart="0.00">
        <route edges="E23 E43 -E51 E39 -E55 E35 -E59 E31 E32 -E13 -E12" />
    </vehicle>
    <vehicle id="veh_1" type="electric_vehicle" depart="1.00">
        <route edges="-E41 -E60 -E35" />
    </vehicle>
    <vehicle id="veh_2" type="electric_vehicle" depart="2.00">
        <route edges="E34 -E54 -E29 -E28 E27" />
    </vehicle>
    <vehicle id="veh_3" type="electric_vehicle" depart="3.00">
        <route edges="E54 E55 E56 E45 E62 -E19" />
    </vehicle>
    <vehicle id="veh_4" type="electric_vehicle" depart="4.00">
        <route edges="-E58 E11 E63 E32 -E13" />
    </vehicle>
    <vehicle id="veh_5" type="electric_vehicle" depart="5.00">
        <route edges="-E35 -E54 -E29 -E48 -E8" />
    </vehicle>
    <vehicle id="veh_6" type="electric_vehicle" depart="6.00">
        <route edges="-E13 -E12 E63 E64 E37 -E14 -E32" />
    </vehicle>
    <vehicle id="veh_7" type="electric_vehicle" depart="7.00">
        <route edges="E24 E38 -E50 E34 -E54 E30 -E58 E11 E12" />
    </vehicle>
    <vehicle id="veh_8" type="electric_vehicle" depart="8.00">
        <route edges="-E35 E55 E40 E41 E42 E16 E17" />
    </vehicle>
    <vehicle id="veh_9" type="electric_vehicle" depart="9.00">
        <route edges="E44 -E56 -E55 E35 -E59 -E58 -E10" />
    </vehicle>
</routes>