<?xml version="1.0" encoding="UTF-8"?>

<!-- generated on 2025-06-29 11:15:09 by Eclipse SUMO netedit Version 1.23.0
-->

<routes xmlns:xsi="http://www.w3.org/2001/XMLSchema-instance" xsi:noNamespaceSchemaLocation="http://sumo.dlr.de/xsd/routes_file.xsd">
    <!-- VTypes -->
    <vType id="ElectricCar" length="5.00" minGap="2.50" maxSpeed="43.88" emissionClass="Energy/default" mass="1036.00" color="0,255,150" accel="4.33" decel="4.33" sigma="0.0">
        <param key="airDragCoefficient" value="0.35"/>
        <param key="constantPowerIntake" value="100"/>
        <param key="device.battery.capacity" value="30000"/>
        <param key="device.battery.maximumChargeRate" value="150000"/>
        <param key="frontSurfaceArea" value="2.6"/>
        <param key="has.battery.device" value="true"/>
        <param key="maximumPower" value="150000"/>
        <param key="propulsionEfficiency" value="0.98"/>
        <param key="radialDragCoefficient" value="0.1"/>
        <param key="recuperationEfficiency" value="0.96"/>
        <param key="rollDragCoefficient" value="0.01"/>
        <param key="rotatingMass" value="40"/>
        <param key="stoppingThreshold" value="0.1"/>
    </vType>
</routes>
