<?xml version="1.0" encoding="UTF-8"?>

<!-- generated on 2025-07-04 08:14:49 by Eclipse SUMO sumo Version 1.23.0
-->

<sumoConfiguration xmlns:xsi="http://www.w3.org/2001/XMLSchema-instance" xsi:noNamespaceSchemaLocation="http://sumo.dlr.de/xsd/sumoConfiguration.xsd">

    <input>
        <net-file value="ev_test.net.xml"/>
        <route-files value="test_routes.rou.xml"/>
        <additional-files value="ev_test.add.xml"/>
    </input>

</sumoConfiguration>
