<?xml version="1.0" encoding="UTF-8"?>

<!-- generated on 2025-06-29 10:54:34 by Eclipse SUMO netedit Version 1.23.0
<neteditConfiguration xmlns:xsi="http://www.w3.org/2001/XMLSchema-instance" xsi:noNamespaceSchemaLocation="http://sumo.dlr.de/xsd/neteditConfiguration.xsd">

    <input>
        <sumo-net-file value="D:\GitHub\IC-redes-veiculares\experiment\ev_test1\ev_test.net.xml"/>
    </input>

    <output>
        <output-file value="D:\GitHub\IC-redes-veiculares\experiment\ev_test1\ev_test.net.xml"/>
    </output>

    <processing>
        <geometry.min-radius.fix.railways value="false"/>
        <geometry.avoid-overlap value="false"/>
        <geometry.max-grade.fix value="false"/>
        <offset.disable-normalization value="true"/>
        <lefthand value="0"/>
    </processing>

    <junctions>
        <no-turnarounds value="true"/>
        <junctions.corner-detail value="5"/>
        <junctions.limit-turn-speed value="5.50"/>
        <rectangular-lane-cut value="0"/>
    </junctions>

    <pedestrian>
        <walkingareas value="0"/>
    </pedestrian>

</neteditConfiguration>
-->

<net version="1.20" junctionCornerDetail="5" limitTurnSpeed="5.50" avoidOverlap="0" xmlns:xsi="http://www.w3.org/2001/XMLSchema-instance" xsi:noNamespaceSchemaLocation="http://sumo.dlr.de/xsd/net_file.xsd">

    <location netOffset="0.00,0.00" convBoundary="-348.83,-171.74,129.32,211.91" origBoundary="-10000000000.00,-10000000000.00,10000000000.00,10000000000.00" projParameter="!"/>

    <edge id=":J21_0" function="internal">
        <lane id=":J21_0_0" index="0" speed="13.89" length="10.46" shape="-192.36,-18.55 -192.99,-21.66 -193.28,-23.82 -193.40,-26.00 -193.55,-29.18"/>
        <lane id=":J21_0_1" index="1" speed="13.89" length="10.46" shape="-189.24,-19.24 -189.83,-22.20 -190.10,-24.26 -190.21,-26.33 -190.35,-29.36"/>
    </edge>
    <edge id=":J21_2" function="internal">
        <lane id=":J21_2_0" index="0" speed="6.94" length="8.82" shape="-189.24,-19.24 -189.34,-21.34 -188.66,-23.17 -187.19,-24.75 -184.94,-26.06"/>
    </edge>
    <edge id=":J22_0" function="internal">
        <lane id=":J22_0_0" index="0" speed="8.49" length="5.15" shape="-158.92,98.29 -160.11,97.36 -160.83,96.58 -161.29,95.62 -161.70,94.16"/>
    </edge>
    <edge id=":J22_1" function="internal">
        <lane id=":J22_1_0" index="0" speed="7.15" length="5.92" shape="-165.81,100.57 -165.04,99.39 -164.62,98.06 -164.54,96.58 -164.80,94.97"/>
    </edge>
    <edge id=":J23_0" function="internal">
        <lane id=":J23_0_0" index="0" speed="8.80" length="6.45" shape="-137.18,115.83 -139.11,115.84 -140.49,115.91 -141.71,116.37 -143.13,117.54"/>
    </edge>
    <edge id=":J23_1" function="internal">
        <lane id=":J23_1_0" index="0" speed="8.13" length="4.63" shape="-137.30,112.63 -138.65,112.62 -139.58,112.42 -140.42,111.96 -141.53,111.16"/>
    </edge>
    <edge id=":J24_0" function="internal">
        <lane id=":J24_0_0" index="0" speed="6.71" length="9.63" shape="13.78,111.61 11.04,111.53 8.95,112.27 7.51,113.85 6.71,116.25"/>
    </edge>
    <edge id=":J24_1" function="internal">
        <lane id=":J24_1_0" index="0" speed="13.89" length="12.43" shape="13.78,111.61 10.24,111.01 7.79,110.66 5.34,110.53 1.75,110.61"/>
        <lane id=":J24_1_1" index="1" speed="13.89" length="12.43" shape="14.30,108.46 10.57,107.82 8.00,107.45 5.41,107.33 1.63,107.41"/>
    </edge>
    <edge id=":J24_3" function="internal">
        <lane id=":J24_3_0" index="0" speed="13.89" length="15.25" shape="12.10,102.19 9.97,105.27 8.46,108.77 7.43,112.50 6.71,116.25"/>
    </edge>
    <edge id=":J24_4" function="internal">
        <lane id=":J24_4_0" index="0" speed="11.27" length="12.02" shape="12.10,102.19 9.77,104.39 7.24,105.99 4.53,107.00 1.63,107.41"/>
    </edge>
    <edge id=":J25_0" function="internal">
        <lane id=":J25_0_0" index="0" speed="13.89" length="11.62" shape="19.90,84.73 22.61,86.95 24.39,88.57 26.07,90.29 28.50,92.82"/>
        <lane id=":J25_0_1" index="1" speed="13.89" length="11.62" shape="17.90,87.24 20.52,89.38 22.24,90.94 23.86,92.60 26.20,95.05"/>
    </edge>
    <edge id=":J25_2" function="internal">
        <lane id=":J25_2_0" index="0" speed="6.43" length="9.21" shape="17.90,87.24 19.61,89.07 20.26,91.00 19.86,93.04 18.41,95.19"/>
    </edge>
    <edge id=":J26_0" function="internal">
        <lane id=":J26_0_0" index="0" speed="13.89" length="11.54" shape="-163.67,-43.58 -161.14,-41.41 -159.37,-39.96 -157.48,-38.69 -154.59,-37.06"/>
        <lane id=":J26_0_1" index="1" speed="13.89" length="11.54" shape="-165.73,-41.13 -163.05,-38.84 -161.17,-37.31 -159.17,-35.96 -156.11,-34.24"/>
    </edge>
    <edge id=":J26_2" function="internal">
        <lane id=":J26_2_0" index="0" speed="9.83" length="10.96" shape="-166.69,-34.23 -163.86,-35.20 -161.15,-35.53 -158.57,-35.21 -156.11,-34.24"/>
    </edge>
    <edge id=":J27_0" function="internal">
        <lane id=":J27_0_0" index="0" speed="13.89" length="12.51" shape="-195.03,-55.56 -195.12,-59.45 -195.16,-62.34 -195.61,-64.88 -196.92,-67.75"/>
    </edge>
    <edge id=":J27_1" function="internal">
        <lane id=":J27_1_0" index="0" speed="5.49" length="4.55" shape="-191.83,-55.74 -191.65,-58.79 -190.84,-60.03"/>
    </edge>
    <edge id=":J27_4" function="internal">
        <lane id=":J27_4_0" index="0" speed="5.49" length="5.10" shape="-190.84,-60.03 -190.68,-60.27 -188.92,-60.16 -186.37,-58.47"/>
    </edge>
    <edge id=":J27_2" function="internal">
        <lane id=":J27_2_0" index="0" speed="13.89" length="14.98" shape="-195.08,-70.81 -193.12,-68.11 -190.84,-66.02 -188.00,-63.85 -184.31,-60.92"/>
        <lane id=":J27_2_1" index="1" speed="13.89" length="14.98" shape="-195.08,-70.81 -193.46,-67.75 -191.94,-64.85 -189.81,-61.84 -186.37,-58.47"/>
    </edge>
    <edge id=":J28_0" function="internal">
        <lane id=":J28_0_0" index="0" speed="11.69" length="5.68" shape="-182.55,119.47 -181.09,118.74 -180.27,117.94 -179.59,116.95 -178.57,115.59"/>
    </edge>
    <edge id=":J28_1" function="internal">
        <lane id=":J28_1_0" index="0" speed="8.79" length="5.38" shape="-182.55,119.47 -181.07,119.01 -179.98,118.96 -178.88,119.24 -177.36,119.74"/>
    </edge>
    <edge id=":J29_0" function="internal">
        <lane id=":J29_0_0" index="0" speed="8.22" length="6.87" shape="-150.91,125.32 -152.36,126.94 -153.36,128.46 -153.93,129.89 -154.05,131.22"/>
    </edge>
    <edge id=":J29_1" function="internal">
        <lane id=":J29_1_0" index="0" speed="6.53" length="6.49" shape="-157.18,125.97 -155.93,126.62 -155.00,127.71 -154.37,129.24 -154.05,131.22"/>
    </edge>
    <edge id=":J30_0" function="internal">
        <lane id=":J30_0_0" index="0" speed="13.89" length="10.12" shape="47.28,114.73 44.36,114.42 42.27,114.93 40.15,115.53 37.12,115.47"/>
        <lane id=":J30_0_1" index="1" speed="13.89" length="10.12" shape="47.28,114.73 44.44,113.93 42.50,113.35 40.54,112.85 37.65,112.31"/>
    </edge>
    <edge id=":J30_2" function="internal">
        <lane id=":J30_2_0" index="0" speed="12.92" length="8.29" shape="41.79,106.57 43.41,108.44 44.53,109.80 45.86,110.82 48.10,111.64"/>
    </edge>
    <edge id=":J30_3" function="internal">
        <lane id=":J30_3_0" index="0" speed="4.76" length="2.30" shape="39.49,108.79 40.93,110.59"/>
    </edge>
    <edge id=":J30_4" function="internal">
        <lane id=":J30_4_0" index="0" speed="4.76" length="5.13" shape="40.93,110.59 41.03,110.72 41.24,111.95 40.11,112.48 37.65,112.31"/>
    </edge>
    <edge id=":J31_0" function="internal">
        <lane id=":J31_0_0" index="0" speed="7.12" length="6.38" shape="-321.67,177.80 -321.64,175.76 -320.71,173.96 -318.96,172.45"/>
    </edge>
    <edge id=":J31_2" function="internal">
        <lane id=":J31_2_0" index="0" speed="7.12" length="3.16" shape="-318.96,172.45 -318.88,172.38 -316.14,171.03"/>
    </edge>
    <edge id=":J31_1" function="internal">
        <lane id=":J31_1_0" index="0" speed="8.21" length="11.92" shape="-325.65,165.09 -322.98,168.27 -320.51,170.32 -318.23,171.24 -316.14,171.03"/>
    </edge>
    <edge id=":J33_0" function="internal">
        <lane id=":J33_0_0" index="0" speed="6.06" length="8.17" shape="-287.28,48.96 -290.08,49.16 -292.13,48.77 -293.41,47.78 -293.92,46.20"/>
    </edge>
    <edge id=":J33_1" function="internal">
        <lane id=":J33_1_0" index="0" speed="13.89" length="6.48" shape="-295.00,52.53 -294.45,50.68 -294.07,49.40 -293.88,48.10 -293.92,46.20"/>
    </edge>
    <edge id=":J34_0" function="internal">
        <lane id=":J34_0_0" index="0" speed="13.89" length="8.59" shape="-299.56,-31.91 -299.73,-34.45 -299.87,-36.20 -300.17,-37.91 -300.78,-40.38"/>
    </edge>
    <edge id=":J34_1" function="internal">
        <lane id=":J34_1_0" index="0" speed="6.83" length="8.06" shape="-291.90,-38.08 -293.97,-37.09 -295.41,-35.77 -296.21,-34.12 -296.37,-32.14"/>
    </edge>
    <edge id=":J34_2" function="internal">
        <lane id=":J34_2_0" index="0" speed="6.79" length="10.46" shape="-291.90,-38.08 -295.29,-37.24 -297.90,-37.35 -299.73,-38.39 -300.78,-40.38"/>
    </edge>
    <edge id=":J34_3" function="internal">
        <lane id=":J34_3_0" index="0" speed="13.89" length="9.20" shape="-297.69,-41.21 -297.03,-38.57 -296.71,-36.73 -296.55,-34.86 -296.37,-32.14"/>
    </edge>
    <edge id=":J35_0" function="internal">
        <lane id=":J35_0_0" index="0" speed="6.61" length="8.65" shape="-179.75,37.24 -180.64,35.14 -182.03,33.76 -183.93,33.10 -186.33,33.16"/>
    </edge>
    <edge id=":J35_1" function="internal">
        <lane id=":J35_1_0" index="0" speed="13.89" length="10.35" shape="-179.75,37.24 -182.22,27.13"/>
        <lane id=":J35_1_1" index="1" speed="13.89" length="10.35" shape="-176.65,36.44 -179.10,26.44"/>
    </edge>
    <edge id=":J36_0" function="internal">
        <lane id=":J36_0_0" index="0" speed="3.91" length="2.43" shape="-256.33,-168.39 -256.74,-168.90 -257.22,-169.18 -257.77,-169.22 -258.40,-169.02"/>
    </edge>
    <edge id=":J36_1" function="internal">
        <lane id=":J36_1_0" index="0" speed="6.09" length="7.28" shape="-259.79,-171.90 -257.91,-172.50 -256.25,-172.39 -254.80,-171.56 -253.57,-170.01"/>
    </edge>
    <edge id=":J37_0" function="internal">
        <lane id=":J37_0_0" index="0" speed="6.12" length="6.73" shape="-326.29,-135.44 -326.51,-137.23 -326.16,-138.75 -325.24,-140.01 -323.74,-141.01"/>
    </edge>
    <edge id=":J37_1" function="internal">
        <lane id=":J37_1_0" index="0" speed="3.92" length="2.24" shape="-322.35,-138.13 -322.85,-137.80 -323.15,-137.38 -323.27,-136.87 -323.19,-136.27"/>
    </edge>
    <edge id=":J38_0" function="internal">
        <lane id=":J38_0_0" index="0" speed="3.91" length="2.40" shape="-313.21,213.50 -313.86,213.47 -314.36,213.25 -314.72,212.83 -314.93,212.21"/>
    </edge>
    <edge id=":J39_0" function="internal">
        <lane id=":J39_0_0" index="0" speed="13.89" length="10.02" shape="-232.25,205.76 -242.22,206.69"/>
    </edge>
    <edge id=":J39_1" function="internal">
        <lane id=":J39_1_0" index="0" speed="6.70" length="8.42" shape="-232.25,205.76 -234.40,205.63 -236.13,204.80 -237.42,203.29 -238.29,201.09"/>
    </edge>
    <edge id=":J40_0" function="internal">
        <lane id=":J40_0_0" index="0" speed="13.89" length="11.08" shape="-143.50,198.10 -154.54,198.96"/>
    </edge>
    <edge id=":J40_1" function="internal">
        <lane id=":J40_1_0" index="0" speed="6.51" length="8.95" shape="-149.44,192.97 -149.61,195.41 -150.51,197.22 -152.15,198.41 -154.54,198.96"/>
    </edge>
    <edge id=":J41_0" function="internal">
        <lane id=":J41_0_0" index="0" speed="13.89" length="9.55" shape="-0.23,187.67 -9.77,188.23"/>
    </edge>
    <edge id=":J41_1" function="internal">
        <lane id=":J41_1_0" index="0" speed="6.82" length="3.49" shape="-4.51,182.87 -5.15,185.09 -5.81,186.07"/>
    </edge>
    <edge id=":J41_2" function="internal">
        <lane id=":J41_2_0" index="0" speed="6.82" length="4.69" shape="-5.81,186.07 -6.25,186.72 -7.79,187.77 -9.77,188.23"/>
    </edge>
    <edge id=":J43_0" function="internal">
        <lane id=":J43_0_0" index="0" speed="7.39" length="5.70" shape="128.03,125.06 128.87,130.14 128.68,130.66"/>
    </edge>
    <edge id=":J43_4" function="internal">
        <lane id=":J43_4_0" index="0" speed="7.39" length="11.32" shape="128.68,130.66 127.73,133.31 124.60,134.56 119.50,133.90"/>
    </edge>
    <edge id=":J43_1" function="internal">
        <lane id=":J43_1_0" index="0" speed="5.64" length="9.27" shape="120.32,130.80 123.10,131.16 124.80,130.48 125.42,128.76 124.97,125.99"/>
    </edge>
    <edge id=":J43_2" function="internal">
        <lane id=":J43_2_0" index="0" speed="7.14" length="11.14" shape="125.89,141.40 126.04,138.90 125.03,136.81 122.85,135.15 119.50,133.90"/>
    </edge>
    <edge id=":J43_3" function="internal">
        <lane id=":J43_3_0" index="0" speed="13.89" length="15.61" shape="125.89,141.40 126.50,137.63 126.46,133.68 125.91,129.74 124.97,125.99"/>
    </edge>
    <edge id=":J44_0" function="internal">
        <lane id=":J44_0_0" index="0" speed="6.33" length="9.04" shape="-82.63,-4.08 -84.08,-2.03 -84.47,-0.06 -83.80,1.84 -82.08,3.67"/>
    </edge>
    <edge id=":J44_1" function="internal">
        <lane id=":J44_1_0" index="0" speed="13.89" length="12.32" shape="-92.39,-3.53 -89.14,-1.70 -87.01,-0.28 -84.99,1.31 -82.08,3.67"/>
        <lane id=":J44_1_1" index="1" speed="13.89" length="12.32" shape="-93.91,-0.72 -90.81,1.04 -88.77,2.39 -86.85,3.92 -84.07,6.17"/>
    </edge>
    <edge id=":J45_0" function="internal">
        <lane id=":J45_0_0" index="0" speed="6.57" length="7.57" shape="-0.29,-84.77 -2.15,-85.54 -3.92,-85.63 -5.58,-85.04 -7.15,-83.77"/>
    </edge>
    <edge id=":J46_0" function="internal">
        <lane id=":J46_0_0" index="0" speed="4.26" length="1.23" shape="74.29,-41.22 74.17,-41.56 74.05,-41.79 73.86,-41.96 73.55,-42.15"/>
    </edge>
    <edge id=":J46_1" function="internal">
        <lane id=":J46_1_0" index="0" speed="6.75" length="3.68" shape="75.15,-44.92 76.07,-44.35 76.63,-43.84 77.00,-43.17 77.35,-42.15"/>
    </edge>
    <edge id=":J47_0" function="internal">
        <lane id=":J47_0_0" index="0" speed="6.64" length="8.60" shape="-250.96,151.57 -251.25,149.19 -250.79,147.23 -249.59,145.70 -247.65,144.59"/>
    </edge>
    <edge id=":J47_1" function="internal">
        <lane id=":J47_1_0" index="0" speed="13.89" length="10.33" shape="-257.28,148.31 -247.65,144.59"/>
    </edge>
    <edge id=":J48_0" function="internal">
        <lane id=":J48_0_0" index="0" speed="6.23" length="6.97" shape="-197.02,-67.92 -197.96,-68.90 -199.34,-69.36 -201.16,-69.29 -203.41,-68.69"/>
    </edge>
    <edge id=":J48_1" function="internal">
        <lane id=":J48_1_0" index="0" speed="13.89" length="8.13" shape="-197.02,-67.92 -201.12,-74.93"/>
    </edge>

    <edge id="-E50" from="J33" to="J34" priority="-1">
        <lane id="-E50_0" index="0" speed="13.89" length="78.31" shape="-293.92,46.20 -299.56,-31.91"/>
    </edge>
    <edge id="-E52" from="J36" to="J27" priority="-1">
        <lane id="-E52_0" index="0" speed="13.89" length="115.16" shape="-253.57,-170.01 -195.08,-70.81"/>
    </edge>
    <edge id="-E53" from="J37" to="J34" priority="-1">
        <lane id="-E53_0" index="0" speed="13.89" length="98.42" shape="-323.19,-136.27 -297.69,-41.21"/>
    </edge>
    <edge id="-E54" from="J36" to="J37" priority="-1">
        <lane id="-E54_0" index="0" speed="13.89" length="71.01" shape="-258.40,-169.02 -322.35,-138.13"/>
    </edge>
    <edge id="-E62" from="J43" to="J30" priority="-1">
        <lane id="-E62_0" index="0" speed="13.89" length="74.72" shape="119.50,133.90 47.28,114.73"/>
    </edge>
    <edge id="-E65" from="J46" to="J45" priority="-1">
        <lane id="-E65_0" index="0" speed="13.89" length="85.26" shape="73.55,-42.15 -0.29,-84.77"/>
    </edge>
    <edge id="-E66" from="J43" to="J46" priority="-1">
        <lane id="-E66_0" index="0" speed="13.89" length="174.73" shape="124.97,125.99 74.29,-41.22"/>
    </edge>
    <edge id="E33" from="J35" to="J21" priority="-1">
        <lane id="E33_0" index="0" speed="13.89" length="46.79" shape="-182.22,27.13 -192.36,-18.55"/>
        <lane id="E33_1" index="1" speed="13.89" length="46.79" shape="-179.10,26.44 -189.24,-19.24"/>
    </edge>
    <edge id="E33.46" from="J22" to="J35" priority="-1">
        <lane id="E33.46_0" index="0" speed="13.89" length="59.63" shape="-164.80,94.97 -179.75,37.24"/>
        <lane id="E33.46_1" index="1" speed="13.89" length="59.63" shape="-161.70,94.16 -176.65,36.44"/>
    </edge>
    <edge id="E34" from="J23" to="J22" priority="-1">
        <lane id="E34_0" index="0" speed="13.89" length="21.63" shape="-141.53,111.16 -158.92,98.29"/>
    </edge>
    <edge id="E35" from="J24" to="J23" priority="-1">
        <lane id="E35_0" index="0" speed="13.89" length="139.03" shape="1.75,110.61 -137.18,115.83"/>
        <lane id="E35_1" index="1" speed="13.89" length="139.03" shape="1.63,107.41 -137.30,112.63"/>
    </edge>
    <edge id="E36" from="J25" to="J24" priority="-1">
        <lane id="E36_0" index="0" speed="13.89" length="9.42" shape="18.41,95.19 12.10,102.19"/>
    </edge>
    <edge id="E37" from="J44" to="J25" priority="-1">
        <lane id="E37_0" index="0" speed="13.89" length="130.27" shape="-82.08,3.67 19.90,84.73"/>
        <lane id="E37_1" index="1" speed="13.89" length="130.27" shape="-84.07,6.17 17.90,87.24"/>
    </edge>
    <edge id="E37.142" from="J26" to="J44" priority="-1">
        <lane id="E37.142_0" index="0" speed="13.89" length="70.66" shape="-154.59,-37.06 -92.39,-3.53"/>
        <lane id="E37.142_1" index="1" speed="13.89" length="70.66" shape="-156.11,-34.24 -93.91,-0.72"/>
    </edge>
    <edge id="E38" from="J21" to="J26" priority="-1">
        <lane id="E38_0" index="0" speed="13.89" length="20.00" shape="-184.94,-26.06 -166.69,-34.23"/>
    </edge>
    <edge id="E39" from="J21" to="J27" priority="-1">
        <lane id="E39_0" index="0" speed="13.89" length="26.42" shape="-193.55,-29.18 -195.03,-55.56"/>
        <lane id="E39_1" index="1" speed="13.89" length="26.42" shape="-190.35,-29.36 -191.83,-55.74"/>
    </edge>
    <edge id="E40" from="J27" to="J26" priority="-1">
        <lane id="E40_0" index="0" speed="13.89" length="26.96" shape="-184.31,-60.92 -163.67,-43.58"/>
        <lane id="E40_1" index="1" speed="13.89" length="26.96" shape="-186.37,-58.47 -165.73,-41.13"/>
    </edge>
    <edge id="E41" from="J28" to="J22" priority="-1">
        <lane id="E41_0" index="0" speed="13.89" length="19.71" shape="-178.57,115.59 -165.81,100.57"/>
    </edge>
    <edge id="E42" from="J28" to="J29" priority="-1">
        <lane id="E42_0" index="0" speed="13.89" length="21.13" shape="-177.36,119.74 -157.18,125.97"/>
    </edge>
    <edge id="E43" from="J23" to="J29" priority="-1">
        <lane id="E43_0" index="0" speed="13.89" length="11.00" shape="-143.13,117.54 -150.91,125.32"/>
    </edge>
    <edge id="E44" from="J30" to="J24" priority="-1">
        <lane id="E44_0" index="0" speed="13.89" length="23.66" shape="37.12,115.47 13.78,111.61"/>
        <lane id="E44_1" index="1" speed="13.89" length="23.66" shape="37.65,112.31 14.30,108.46"/>
    </edge>
    <edge id="E45" from="J25" to="J30" priority="-1">
        <lane id="E45_0" index="0" speed="13.89" length="19.12" shape="28.50,92.82 41.79,106.57"/>
        <lane id="E45_1" index="1" speed="13.89" length="19.12" shape="26.20,95.05 39.49,108.79"/>
    </edge>
    <edge id="E46" from="J47" to="J28" priority="-1">
        <lane id="E46_0" index="0" speed="13.89" length="69.77" shape="-247.65,144.59 -182.55,119.47"/>
    </edge>
    <edge id="E46.74" from="J31" to="J47" priority="-1">
        <lane id="E46.74_0" index="0" speed="13.89" length="63.09" shape="-316.14,171.03 -257.28,148.31"/>
    </edge>
    <edge id="E47" from="J32" to="J31" priority="-1">
        <lane id="E47_0" index="0" speed="13.89" length="35.53" shape="-346.76,136.51 -325.65,165.09"/>
    </edge>
    <edge id="E48" from="J32" to="J33" priority="-1" shape="-348.83,136.40 -322.12,114.22 -306.96,95.36 -298.56,72.31 -292.18,48.11">
        <lane id="E48_0" index="0" speed="13.89" length="97.78" shape="-346.23,132.16 -323.27,113.09 -308.37,94.56 -300.09,71.83 -295.00,52.53"/>
    </edge>
    <edge id="E50" from="J34" to="J33" priority="-1">
        <lane id="E50_0" index="0" speed="13.89" length="78.31" shape="-296.37,-32.14 -290.73,45.97"/>
    </edge>
    <edge id="E51" from="J35" to="J33" priority="-1">
        <lane id="E51_0" index="0" speed="13.89" length="102.18" shape="-186.33,33.16 -287.28,48.96"/>
    </edge>
    <edge id="E52" from="J27" to="J48" priority="-1">
        <lane id="E52_0" index="0" speed="13.89" length="0.20" shape="-196.92,-67.75 -197.02,-67.92"/>
    </edge>
    <edge id="E52.16" from="J48" to="J36" priority="-1">
        <lane id="E52.16_0" index="0" speed="13.89" length="108.54" shape="-201.12,-74.93 -256.33,-168.39"/>
    </edge>
    <edge id="E53" from="J34" to="J37" priority="-1">
        <lane id="E53_0" index="0" speed="13.89" length="98.42" shape="-300.78,-40.38 -326.29,-135.44"/>
    </edge>
    <edge id="E54" from="J37" to="J36" priority="-1">
        <lane id="E54_0" index="0" speed="13.89" length="71.01" shape="-323.74,-141.01 -259.79,-171.90"/>
    </edge>
    <edge id="E55" from="J38" to="J31" priority="-1">
        <lane id="E55_0" index="0" speed="13.89" length="35.06" shape="-314.93,212.21 -321.67,177.80"/>
    </edge>
    <edge id="E56" from="J39" to="J38" priority="-1">
        <lane id="E56_0" index="0" speed="13.89" length="71.31" shape="-242.22,206.69 -313.21,213.50"/>
    </edge>
    <edge id="E57" from="J40" to="J39" priority="-1">
        <lane id="E57_0" index="0" speed="13.89" length="78.01" shape="-154.54,198.96 -232.25,205.76"/>
    </edge>
    <edge id="E58" from="J29" to="J40" priority="-1">
        <lane id="E58_0" index="0" speed="13.89" length="61.92" shape="-154.05,131.22 -149.44,192.97"/>
    </edge>
    <edge id="E59" from="J41" to="J40" priority="-1">
        <lane id="E59_0" index="0" speed="13.89" length="134.09" shape="-9.77,188.23 -143.50,198.10"/>
    </edge>
    <edge id="E60" from="J24" to="J41" priority="-1">
        <lane id="E60_0" index="0" speed="13.89" length="67.55" shape="6.71,116.25 -4.51,182.87"/>
    </edge>
    <edge id="E61" from="J42" to="J41" priority="-1">
        <lane id="E61_0" index="0" speed="13.89" length="112.71" shape="112.32,181.87 -0.23,187.67"/>
    </edge>
    <edge id="E62" from="J30" to="J43" priority="-1">
        <lane id="E62_0" index="0" speed="13.89" length="74.72" shape="48.10,111.64 120.32,130.80"/>
    </edge>
    <edge id="E63" from="J42" to="J43" priority="-1">
        <lane id="E63_0" index="0" speed="13.89" length="39.13" shape="115.67,179.16 125.89,141.40"/>
    </edge>
    <edge id="E64" from="J45" to="J44" priority="-1">
        <lane id="E64_0" index="0" speed="13.89" length="109.76" shape="-7.15,-83.77 -82.63,-4.08"/>
    </edge>
    <edge id="E65" from="J45" to="J46" priority="-1">
        <lane id="E65_0" index="0" speed="13.89" length="85.26" shape="1.31,-87.54 75.15,-44.92"/>
    </edge>
    <edge id="E66" from="J46" to="J43" priority="-1">
        <lane id="E66_0" index="0" speed="13.89" length="174.73" shape="77.35,-42.15 128.03,125.06"/>
    </edge>
    <edge id="E67" from="J39" to="J47" priority="-1">
        <lane id="E67_0" index="0" speed="13.89" length="51.11" shape="-238.29,201.09 -250.96,151.57"/>
    </edge>
    <edge id="E68" from="J48" to="J34" priority="-1">
        <lane id="E68_0" index="0" speed="13.89" length="93.64" shape="-203.41,-68.69 -291.90,-38.08"/>
    </edge>

    <junction id="J21" type="priority" x="-188.38" y="-22.77" incLanes="E33_0 E33_1" intLanes=":J21_0_0 :J21_0_1 :J21_2_0" shape="-193.92,-18.20 -187.67,-19.59 -187.61,-21.56 -187.18,-22.43 -186.48,-23.23 -185.52,-23.95 -184.29,-24.60 -185.59,-27.52 -187.27,-27.14 -187.87,-27.34 -188.32,-27.79 -188.62,-28.49 -188.75,-29.45 -195.14,-29.09 -195.03,-26.75 -194.95,-25.02 -194.86,-23.60 -194.70,-22.18 -194.40,-20.48">
        <request index="0" response="000" foes="000" cont="0"/>
        <request index="1" response="000" foes="000" cont="0"/>
        <request index="2" response="000" foes="000" cont="0"/>
    </junction>
    <junction id="J22" type="priority" x="-159.63" y="95.77" incLanes="E34_0 E41_0" intLanes=":J22_0_0 :J22_1_0" shape="-159.87,99.58 -157.97,97.01 -159.12,96.07 -159.47,95.66 -159.72,95.19 -159.93,94.58 -160.16,93.76 -166.35,95.37 -166.13,96.98 -166.19,97.70 -166.35,98.36 -166.63,98.97 -167.03,99.53 -164.59,101.60 -162.79,99.87 -161.97,99.40 -161.21,99.20 -160.51,99.26">
        <request index="0" response="00" foes="00" cont="0"/>
        <request index="1" response="00" foes="00" cont="0"/>
    </junction>
    <junction id="J23" type="priority" x="-138.93" y="111.09" incLanes="E35_0 E35_1" intLanes=":J23_0_0 :J23_1_0" shape="-137.12,117.43 -137.36,111.03 -138.65,110.98 -139.09,110.86 -139.51,110.64 -139.98,110.31 -140.58,109.87 -142.48,112.44 -142.12,113.30 -142.29,113.90 -142.71,114.62 -143.36,115.46 -144.26,116.41 -142.00,118.68 -140.50,117.58 -139.83,117.42 -139.11,117.40 -138.23,117.43">
        <request index="0" response="00" foes="00" cont="0"/>
        <request index="1" response="00" foes="00" cont="0"/>
    </junction>
    <junction id="J24" type="priority" x="6.88" y="105.61" incLanes="E44_0 E44_1 E36_0" intLanes=":J24_0_0 :J24_1_0 :J24_1_1 :J24_3_0 :J24_4_0" shape="13.52,113.19 14.56,106.88 12.67,106.19 12.28,105.65 12.25,104.98 12.59,104.19 13.29,103.26 10.91,101.12 8.08,103.64 6.56,104.54 4.97,105.20 3.30,105.62 1.57,105.81 1.81,112.21 3.95,112.56 4.63,113.08 5.06,113.82 5.22,114.79 5.13,115.99 8.29,116.52 9.17,114.34 9.94,113.65 10.92,113.23 12.11,113.08">
        <request index="0" response="00000" foes="01000" cont="0"/>
        <request index="1" response="00000" foes="11000" cont="0"/>
        <request index="2" response="00000" foes="11000" cont="0"/>
        <request index="3" response="00111" foes="00111" cont="0"/>
        <request index="4" response="00110" foes="00110" cont="0"/>
    </junction>
    <junction id="J25" type="priority" x="20.04" y="90.98" incLanes="E37_0 E37_1" intLanes=":J25_0_0 :J25_0_1 :J25_2_0" shape="25.05,96.16 29.65,91.71 27.88,89.86 26.57,88.49 25.47,87.38 24.32,86.32 22.88,85.09 20.89,83.48 16.91,88.49 18.33,90.22 18.55,91.14 18.44,92.10 17.99,93.09 17.22,94.12 19.59,96.26 21.39,94.93 22.30,94.75 23.21,94.89 24.13,95.37">
        <request index="0" response="000" foes="000" cont="0"/>
        <request index="1" response="000" foes="000" cont="0"/>
        <request index="2" response="000" foes="000" cont="0"/>
    </junction>
    <junction id="J26" type="priority" x="-160.97" y="-35.04" incLanes="E40_0 E40_1 E38_0" intLanes=":J26_0_0 :J26_0_1 :J26_2_0" shape="-156.87,-32.83 -153.83,-38.46 -155.86,-39.58 -157.32,-40.48 -158.47,-41.29 -159.57,-42.18 -160.88,-43.30 -162.64,-44.80 -166.75,-39.90 -165.46,-38.29 -165.37,-37.56 -165.66,-36.89 -166.31,-36.26 -167.34,-35.69 -166.04,-32.77 -162.77,-33.79 -161.21,-33.92 -159.71,-33.81 -158.26,-33.44">
        <request index="0" response="000" foes="100" cont="0"/>
        <request index="1" response="000" foes="100" cont="0"/>
        <request index="2" response="011" foes="011" cont="0"/>
    </junction>
    <junction id="J27" type="priority" x="-190.46" y="-59.82" incLanes="E39_0 E39_1 -E52_0" intLanes=":J27_0_0 :J27_4_0 :J27_2_0 :J27_2_1" shape="-196.63,-55.47 -190.24,-55.83 -190.02,-57.76 -189.64,-58.18 -189.07,-58.23 -188.33,-57.92 -187.40,-57.25 -183.28,-62.15 -185.68,-64.00 -187.58,-65.27 -189.17,-66.31 -190.61,-67.47 -192.06,-69.12 -193.70,-71.62 -199.17,-68.44 -197.85,-65.95 -197.12,-64.00 -196.79,-62.29 -196.71,-60.49 -196.71,-58.32">
        <request index="0" response="0000" foes="0000" cont="0"/>
        <request index="1" response="1100" foes="1100" cont="1"/>
        <request index="2" response="0000" foes="0010" cont="0"/>
        <request index="3" response="0000" foes="0010" cont="0"/>
    </junction>
    <junction id="J28" type="priority" x="-180.58" y="120.42" incLanes="E46_0" intLanes=":J28_0_0 :J28_1_0" shape="-177.84,121.27 -176.89,118.21 -177.58,117.84 -177.72,117.59 -177.73,117.31 -177.61,116.98 -177.35,116.62 -179.79,114.55 -180.85,116.06 -181.20,116.62 -181.62,117.11 -182.22,117.55 -183.13,117.97 -181.98,120.96 -180.48,120.57 -179.92,120.60 -179.36,120.75 -178.70,120.98">
        <request index="0" response="00" foes="00" cont="0"/>
        <request index="1" response="00" foes="00" cont="0"/>
    </junction>
    <junction id="J29" type="priority" x="-155.90" y="128.04" incLanes="E43_0 E42_0" intLanes=":J29_0_0 :J29_1_0" shape="-155.65,131.34 -152.46,131.10 -152.22,129.77 -151.86,129.02 -151.33,128.22 -150.63,127.36 -149.78,126.45 -152.04,124.19 -153.13,124.79 -153.85,124.90 -154.69,124.88 -155.64,124.72 -156.71,124.44 -157.65,127.50 -156.65,128.17 -156.27,128.73 -155.98,129.44 -155.77,130.31">
        <request index="0" response="10" foes="10" cont="0"/>
        <request index="1" response="00" foes="01" cont="0"/>
    </junction>
    <junction id="J30" type="priority" x="39.39" y="110.98" incLanes="-E62_0 E45_0 E45_1" intLanes=":J30_0_0 :J30_0_1 :J30_2_0 :J30_4_0" shape="46.87,116.28 48.51,110.09 46.07,109.05 45.36,108.40 44.73,107.61 43.99,106.64 42.94,105.45 38.34,109.90 38.76,110.47 38.76,110.65 38.61,110.75 38.33,110.78 37.91,110.74 36.86,117.05 38.99,117.19 40.58,116.93 41.90,116.49 43.22,116.09 44.78,115.94">
        <request index="0" response="0000" foes="1000" cont="0"/>
        <request index="1" response="0000" foes="1000" cont="0"/>
        <request index="2" response="0000" foes="0000" cont="0"/>
        <request index="3" response="0011" foes="0011" cont="1"/>
    </junction>