<?xml version="1.0" encoding="UTF-8"?>

<!-- generated on 2025-06-29 11:15:09 by Eclipse SUMO netedit Version 1.23.0
-->

<additional xmlns:xsi="http://www.w3.org/2001/XMLSchema-instance" xsi:noNamespaceSchemaLocation="http://sumo.dlr.de/xsd/additional_file.xsd">
    <!-- StoppingPlaces -->
    <parkingArea id="pa_1" lane="E33.46_1" startPos="21.56" endPos="31.56" lefthand="1"/>
</additional>
