<?xml version="1.0" encoding="UTF-8"?>

<!-- generated on 2025-06-29 11:15:09 by Eclipse SUMO netedit Version 1.23.0
-->

<additional xmlns:xsi="http://www.w3.org/2001/XMLSchema-instance" xsi:noNamespaceSchemaLocation="http://sumo.dlr.de/xsd/additional_file.xsd">
    <!-- StoppingPlaces -->
    <chargingStation id="cs_0:2" power="22000" efficiency="0.95" chargeDelay="5" lane="E8_0" startPos="27.87" endPos="37.87"/>
    <chargingStation id="cs_1:2" power="22000" efficiency="0.95" chargeDelay="5" lane="-E48_0" startPos="27.31" endPos="37.31"/>
    <chargingStation id="cs_2:2" power="22000" efficiency="0.95" chargeDelay="5" lane="-E9_0" startPos="33.54" endPos="43.54"/>
</additional>
