<?xml version="1.0" encoding="UTF-8"?>

<!-- generated on 2025-05-23 14:10:36 by Eclipse SUMO sumo Version 1.23.0
-->

<sumoConfiguration xmlns:xsi="http://www.w3.org/2001/XMLSchema-instance" xsi:noNamespaceSchemaLocation="http://sumo.dlr.de/xsd/sumoConfiguration.xsd">

    <input>
        <net-file value="circles.net.xml"/>
        <route-files value="circles.rou.xml"/>
        <additional-files value="circles.add.xml"/>
    </input>

</sumoConfiguration>
