<?xml version="1.0" encoding="UTF-8"?>

<!-- generated on 2025-05-16 14:53:10 by Eclipse SUMO netedit Version 1.23.0
-->

<additional xmlns:xsi="http://www.w3.org/2001/XMLSchema-instance" xsi:noNamespaceSchemaLocation="http://sumo.dlr.de/xsd/additional_file.xsd">
    <!-- Other additionals -->
    <rerouter id="rerouter_0" edges="L2E2">
        <interval begin="0" end="1e9">
           <destProbReroute id="L1E2"/>
        </interval>
    </rerouter>

    <rerouter id="rerouter_1" edges="L1E2">
        <interval begin="0" end="1e9">
           <destProbReroute id="L2E2"/>
        </interval>
    </rerouter>



    <rerouter id="rerouter_2" edges="I1">
        <interval begin="0" end="1e9">
           <destProbReroute id="I2"/>
        </interval>
    </rerouter>

    <rerouter id="rerouter_3" edges="I2">
        <interval begin="0" end="1e9">
           <destProbReroute id="E1"/>
        </interval>
    </rerouter>

    <rerouter id="rerouter_4" edges="E1">
        <interval begin="0" end="1e9">
           <destProbReroute id="E3"/>
        </interval>
    </rerouter>

    <rerouter id="rerouter_5" edges="E3">
        <interval begin="0" end="1e9">
           <destProbReroute id="E4"/>
        </interval>
    </rerouter>

    <rerouter id="rerouter_6" edges="E4">
        <interval begin="0" end="1e9">
           <destProbReroute id="I1"/>
        </interval>
    </rerouter>
    
</additional>
