<?xml version="1.0" encoding="UTF-8"?>

<sumoConfiguration xmlns:xsi="http://www.w3.org/2001/XMLSchema-instance" xsi:noNamespaceSchemaLocation="http://sumo.dlr.de/xsd/sumoConfiguration.xsd">

    <input>
        <net-file value="bh.net.xml"/>
        <route-files value="routes_1_0.rou.xml"/>
    </input>
</sumoConfiguration>