<?xml version="1.0" encoding="UTF-8"?>

<!-- generated on 2026-03-02 10:41:45.059266 by osmWebWizard.py v1_23_0+0000-ad042bb7d28
<configuration>
    <net-file value="C:\Program Files (x86)\Eclipse\Sumo\tools\2026-03-02-10-39-11\osm.net.xml.gz"/>
    <output-trip-file value="C:\Program Files (x86)\Eclipse\Sumo\tools\2026-03-02-10-39-11\osm.passenger.trips.xml"/>
    <route-file value="C:\Program Files (x86)\Eclipse\Sumo\tools\2026-03-02-10-39-11\osm.passenger.rou.xml"/>
    <prefix value="veh"/>
    <trip-attributes value="departLane=&quot;best&quot;"/>
    <fringe-start-attributes value="departSpeed=&quot;max&quot;"/>
    <vehicle-class value="passenger"/>
    <lanes value="True"/>
    <fringe-factor value="5"/>
    <allow-fringe.min-length value="1000.0"/>
    <edge-permission value="passenger"/>
    <via-edge-types value="highway.motorway,highway.motorway_link,highway.trunk_link,highway.primary_link,highway.secondary_link,highway.tertiary_link"/>
    <min-distance value="300.0"/>
    <min-distance.fringe value="10.0"/>
    <remove-loops value="True"/>
    <validate value="True"/>
    <insertion-density value="12.0"/>
</configuration>
-->

<routes xmlns:xsi="http://www.w3.org/2001/XMLSchema-instance" xsi:noNamespaceSchemaLocation="http://sumo.dlr.de/xsd/routes_file.xsd">
    <vType id="veh_passenger" vClass="passenger"/>
    <trip id="veh0" depart="0.00" from="378670412#0" to="-136231431#2" departLane="best" type="veh_passenger"/>
    <trip id="veh1" depart="0.25" from="136463488" to="10600965#1" departLane="best" type="veh_passenger"/>
    <trip id="veh2" depart="0.49" from="517465754#2" to="4680935#0" departLane="best" type="veh_passenger"/>
    <trip id="veh3" depart="0.74" from="963686718" to="-30420782" departLane="best" type="veh_passenger"/>
    <trip id="veh4" depart="0.98" from="256766491#2" to="-162504443" departLane="best" type="veh_passenger"/>
    <trip id="veh5" depart="1.23" from="1025611952#1" to="280302520#5" departLane="best" type="veh_passenger"/>
    <trip id="veh6" depart="1.48" from="-136232249#4" to="-978303106#3" departLane="best" type="veh_passenger"/>
    <trip id="veh7" depart="1.72" from="42005239#0" to="285768126#1" departLane="best" type="veh_passenger" departSpeed="max"/>
    <trip id="veh8" depart="1.97" from="1026251690" to="29267371#1" departLane="best" type="veh_passenger"/>
    <trip id="veh9" depart="2.21" from="8107783#0" to="-1062484440" departLane="best" type="veh_passenger" departSpeed="max"/>
    <trip id="veh10" depart="2.46" from="8106568#0" to="497935291" departLane="best" type="veh_passenger"/>
    <trip id="veh11" depart="2.71" from="227119745#2" to="-8662975" departLane="best" type="veh_passenger"/>
    <trip id="veh12" depart="2.95" from="970167776#0" to="227729473#6" departLane="best" type="veh_passenger"/>
    <trip id="veh13" depart="3.20" from="-314919618#4" to="-370658136#0" departLane="best" type="veh_passenger" departSpeed="max"/>
    <trip id="veh14" depart="3.44" from="885002305" to="30684435#0-AddedOffRampEdge" departLane="best" type="veh_passenger"/>
    <trip id="veh15" depart="3.69" from="8106579#1" to="517465754#2" departLane="best" type="veh_passenger"/>
    <trip id="veh16" depart="3.94" from="283271326" to="9703140#3" departLane="best" type="veh_passenger"/>
    <trip id="veh17" depart="4.18" from="244672380#2" to="287526413#1" departLane="best" type="veh_passenger"/>
    <trip id="veh18" depart="4.43" from="8662645#2" to="338783794#0" departLane="best" type="veh_passenger"/>
    <trip id="veh19" depart="4.67" from="91582196#2" to="291624459#0" departLane="best" type="veh_passenger"/>
    <trip id="veh20" depart="4.92" from="497789342#3" to="-224393486#1" departLane="best" type="veh_passenger"/>
    <trip id="veh21" depart="5.17" from="103871564#1" to="188993500#2" departLane="best" type="veh_passenger"/>
    <trip id="veh22" depart="5.41" from="-286996132#0" to="114413608#1" departLane="best" type="veh_passenger"/>
    <trip id="veh23" depart="5.66" from="-425343179" to="161536113#5" departLane="best" type="veh_passenger"/>
    <trip id="veh24" depart="5.90" from="377908233" to="244672352#1" departLane="best" type="veh_passenger"/>
    <trip id="veh25" depart="6.15" from="240380141#5" to="1026251689" departLane="best" type="veh_passenger"/>
    <trip id="veh26" depart="6.40" from="133436782#1" to="965971028" departLane="best" type="veh_passenger"/>
    <trip id="veh27" depart="6.64" from="39114592" to="314924435#0" departLane="best" type="veh_passenger"/>
    <trip id="veh28" depart="6.89" from="-884592631" to="517465747#1" departLane="best" type="veh_passenger"/>
    <trip id="veh29" depart="7.13" from="-8662966#2" to="253055145#0" departLane="best" type="veh_passenger"/>
    <trip id="veh30" depart="7.38" from="9788558#0" to="386016128#4" departLane="best" type="veh_passenger"/>
    <trip id="veh31" depart="7.63" from="287526534#1" to="488882036#1" departLane="best" type="veh_passenger"/>
    <trip id="veh32" depart="7.87" from="8795554#1" to="683266185" departLane="best" type="veh_passenger"/>
    <trip id="veh33" depart="8.12" from="10597924#4" to="-181034069#2" departLane="best" type="veh_passenger"/>
    <trip id="veh34" depart="8.36" from="221977256#0" to="136554478#4" departLane="best" type="veh_passenger"/>
    <trip id="veh35" depart="8.61" from="-9790196" to="966854945" departLane="best" type="veh_passenger"/>
    <trip id="veh36" depart="8.86" from="959429095" to="222471665#4" departLane="best" type="veh_passenger"/>
    <trip id="veh37" depart="9.10" from="447939110#1" to="253072124#1" departLane="best" type="veh_passenger"/>
    <trip id="veh38" depart="9.35" from="964691300#0-AddedOffRampEdge" to="278931524#1" departLane="best" type="veh_passenger"/>
    <trip id="veh39" depart="9.59" from="133379650#1" to="1298905311" departLane="best" type="veh_passenger"/>
    <trip id="veh40" depart="9.84" from="28834078#2" to="134997252#2" departLane="best" type="veh_passenger"/>
    <trip id="veh41" depart="10.09" from="253062304#1" to="10597939#2" departLane="best" type="veh_passenger"/>
    <trip id="veh42" depart="10.33" from="9874664#1" to="280414838" departLane="best" type="veh_passenger"/>
    <trip id="veh43" depart="10.58" from="-314212658#1" to="-234005803#0" departLane="best" type="veh_passenger"/>
    <trip id="veh44" depart="10.82" from="-4600777#5" to="370658139#1" departLane="best" type="veh_passenger"/>
    <trip id="veh45" depart="11.07" from="74395825#2" to="266432234#4-AddedOnRampEdge" departLane="best" type="veh_passenger"/>
    <trip id="veh46" depart="11.32" from="-278742220#2" to="253055149#10" departLane="best" type="veh_passenger"/>
    <trip id="veh47" depart="11.56" from="9805959#10" to="283261788#0" departLane="best" type="veh_passenger"/>
    <trip id="veh48" depart="11.81" from="970281683" to="897564411-AddedOffRampEdge" departLane="best" type="veh_passenger" departSpeed="max"/>
    <trip id="veh49" depart="12.05" from="-118841907#1" to="516224145#2" departLane="best" type="veh_passenger"/>
    <trip id="veh50" depart="12.30" from="4662943#15" to="284051421#12" departLane="best" type="veh_passenger"/>
    <trip id="veh51" depart="12.55" from="-4662938#1" to="277932254#2" departLane="best" type="veh_passenger"/>
    <trip id="veh52" depart="12.79" from="278514505" to="970120244#1" departLane="best" type="veh_passenger"/>
    <trip id="veh53" depart="13.04" from="959211262" to="135178143" departLane="best" type="veh_passenger"/>
    <trip id="veh54" depart="13.28" from="279484648#1" to="-9633901#6" departLane="best" type="veh_passenger"/>
    <trip id="veh55" depart="13.53" from="964428311" to="9529612#0" departLane="best" type="veh_passenger"/>
    <trip id="veh56" depart="13.78" from="188993500#5" to="386016125#0" departLane="best" type="veh_passenger"/>
    <trip id="veh57" depart="14.02" from="30684435#0" to="-8661210#0" departLane="best" type="veh_passenger"/>
    <trip id="veh58" depart="14.27" from="644048511#0" to="284132614#0" departLane="best" type="veh_passenger" departSpeed="max"/>
    <trip id="veh59" depart="14.51" from="683260066" to="283264875#2" departLane="best" type="veh_passenger"/>
    <trip id="veh60" depart="14.76" from="-1013326814" to="224943519#1" departLane="best" type="veh_passenger" departSpeed="max"/>
    <trip id="veh61" depart="15.01" from="-133114811#0" to="965731247" departLane="best" type="veh_passenger"/>
    <trip id="veh62" depart="15.25" from="959599419#0" to="8662673#1" departLane="best" type="veh_passenger"/>
    <trip id="veh63" depart="15.50" from="218389831" to="-276726284#1" departLane="best" type="veh_passenger"/>
    <trip id="veh64" depart="15.74" from="959599417#0" to="9677544#1" departLane="best" type="veh_passenger"/>
    <trip id="veh65" depart="15.99" from="-291672037#2" to="279402175#5" departLane="best" type="veh_passenger" departSpeed="max"/>
    <trip id="veh66" depart="16.24" from="-279579186" to="644622259" departLane="best" type="veh_passenger"/>
    <trip id="veh67" depart="16.48" from="644622263" to="-660664647" departLane="best" type="veh_passenger"/>
    <trip id="veh68" depart="16.73" from="279161390#0" to="287143340" departLane="best" type="veh_passenger"/>
    <trip id="veh69" depart="16.97" from="133379652#2" to="9529621#6" departLane="best" type="veh_passenger"/>
    <trip id="veh70" depart="17.22" from="256768734#1" to="1027717079" departLane="best" type="veh_passenger"/>
    <trip id="veh71" depart="17.47" from="284021502#8" to="517465755#1" departLane="best" type="veh_passenger"/>
    <trip id="veh72" depart="17.71" from="9797986#2" to="4498809#0" departLane="best" type="veh_passenger"/>
    <trip id="veh73" depart="17.96" from="276255832" to="280940882" departLane="best" type="veh_passenger"/>
    <trip id="veh74" depart="18.20" from="-509528021" to="10644905#1" departLane="best" type="veh_passenger" departSpeed="max"/>
    <trip id="veh75" depart="18.45" from="227111397#0" to="292330199#8" departLane="best" type="veh_passenger"/>
    <trip id="veh76" depart="18.70" from="-280273679" to="378662400#1" departLane="best" type="veh_passenger"/>
    <trip id="veh77" depart="18.94" from="10597924#1" to="964084665#0" departLane="best" type="veh_passenger"/>
    <trip id="veh78" depart="19.19" from="890533374" to="-280809625" departLane="best" type="veh_passenger"/>
    <trip id="veh79" depart="19.43" from="108140360#1" to="4600797#3" departLane="best" type="veh_passenger"/>
    <trip id="veh80" depart="19.68" from="-9874683#3" to="-711858491#0" departLane="best" type="veh_passenger"/>
    <trip id="veh81" depart="19.93" from="965975464#0" to="289666168#3" departLane="best" type="veh_passenger"/>
    <trip id="veh82" depart="20.17" from="279160690#0" to="711858491#0" departLane="best" type="veh_passenger"/>
    <trip id="veh83" depart="20.42" from="8106581#1" to="-970276333#1" departLane="best" type="veh_passenger"/>
    <trip id="veh84" depart="20.66" from="-359654773#5" to="276719287" departLane="best" type="veh_passenger" departSpeed="max"/>
    <trip id="veh85" depart="20.91" from="256923539" to="279161388" departLane="best" type="veh_passenger"/>
    <trip id="veh86" depart="21.16" from="516893226" to="4662935#1" departLane="best" type="veh_passenger" departSpeed="max"/>
    <trip id="veh87" depart="21.40" from="9704155#0" to="-379554686" departLane="best" type="veh_passenger"/>
    <trip id="veh88" depart="21.65" from="253062324#0-AddedOnRampEdge" to="227729617#7" departLane="best" type="veh_passenger"/>
    <trip id="veh89" depart="21.89" from="91582196#0" to="131708527#3" departLane="best" type="veh_passenger"/>
    <trip id="veh90" depart="22.14" from="-9633910#1" to="278582180#1" departLane="best" type="veh_passenger"/>
    <trip id="veh91" depart="22.39" from="256766491#2" to="161536141#0" departLane="best" type="veh_passenger"/>
    <trip id="veh92" depart="22.63" from="121429642#1" to="965678279#0" departLane="best" type="veh_passenger"/>
    <trip id="veh93" depart="22.88" from="277932254#1" to="90844104#1" departLane="best" type="veh_passenger"/>
    <trip id="veh94" depart="23.12" from="285774891#0" to="-253055134" departLane="best" type="veh_passenger"/>
    <trip id="veh95" depart="23.37" from="99947377#1" to="8764171#1" departLane="best" type="veh_passenger"/>
    <trip id="veh96" depart="23.62" from="970176804" to="965707624#1" departLane="best" type="veh_passenger"/>
    <trip id="veh97" depart="23.86" from="88542222#1" to="-8887569#1" departLane="best" type="veh_passenger"/>
    <trip id="veh98" depart="24.11" from="279274338" to="1035364163" departLane="best" type="veh_passenger"/>
    <trip id="veh99" depart="24.35" from="253062319" to="-278231130#1" departLane="best" type="veh_passenger"/>
    <trip id="veh100" depart="24.60" from="244672380#4" to="9704157#3" departLane="best" type="veh_passenger"/>
    <trip id="veh101" depart="24.85" from="133379653#1" to="70944846#5" departLane="best" type="veh_passenger"/>
    <trip id="veh102" depart="25.09" from="278519874#0" to="266432236#4-AddedOffRampEdge" departLane="best" type="veh_passenger"/>
    <trip id="veh103" depart="25.34" from="970167776#0" to="9805959#4" departLane="best" type="veh_passenger"/>
    <trip id="veh104" depart="25.58" from="287525605#5" to="5154390#0" departLane="best" type="veh_passenger"/>
    <trip id="veh105" depart="25.83" from="-8658611#0" to="218100064#0" departLane="best" type="veh_passenger"/>
    <trip id="veh106" depart="26.08" from="970173992#0" to="29182634#0" departLane="best" type="veh_passenger"/>
    <trip id="veh107" depart="26.32" from="284051421#2" to="558841151#0" departLane="best" type="veh_passenger"/>
    <trip id="veh108" depart="26.57" from="-256196099" to="29232694#1" departLane="best" type="veh_passenger"/>
    <trip id="veh109" depart="26.81" from="279485805#0" to="8887514" departLane="best" type="veh_passenger"/>
    <trip id="veh110" depart="27.06" from="-8658649#5" to="970169403#0" departLane="best" type="veh_passenger" departSpeed="max"/>
    <trip id="veh111" depart="27.31" from="-286996132#3" to="-966789700#1" departLane="best" type="veh_passenger"/>
    <trip id="veh112" depart="27.55" from="29267371#3" to="4662943#5" departLane="best" type="veh_passenger"/>
    <trip id="veh113" depart="27.80" from="107120215#5" to="-52336749#4" departLane="best" type="veh_passenger"/>
    <trip id="veh114" depart="28.04" from="9633943#0" to="127002719#0" departLane="best" type="veh_passenger"/>
    <trip id="veh115" depart="28.29" from="292501516" to="338783794#1" departLane="best" type="veh_passenger" departSpeed="max"/>
    <trip id="veh116" depart="28.54" from="256196103" to="29221209#3" departLane="best" type="veh_passenger"/>
    <trip id="veh117" depart="28.78" from="28093730#2-AddedOffRampEdge" to="965764448" departLane="best" type="veh_passenger"/>
    <trip id="veh118" depart="29.03" from="-970352579" to="5109323#1" departLane="best" type="veh_passenger" departSpeed="max"/>
    <trip id="veh119" depart="29.27" from="111627124" to="253072124#10" departLane="best" type="veh_passenger"/>
    <trip id="veh120" depart="29.52" from="4600719#0" to="218531013#0" departLane="best" type="veh_passenger"/>
    <trip id="veh121" depart="29.77" from="222003079#1" to="580613822#0" departLane="best" type="veh_passenger"/>
    <trip id="veh122" depart="30.01" from="-280481794#2" to="278930071#1" departLane="best" type="veh_passenger"/>
    <trip id="veh123" depart="30.26" from="9874688#1" to="9805969" departLane="best" type="veh_passenger"/>
    <trip id="veh124" depart="30.50" from="-280763542#3" to="1028708985#1" departLane="best" type="veh_passenger"/>
    <trip id="veh125" depart="30.75" from="133379653#1" to="965749900#4" departLane="best" type="veh_passenger"/>
    <trip id="veh126" depart="31.00" from="959845328" to="959592268" departLane="best" type="veh_passenger"/>
    <trip id="veh127" depart="31.24" from="240380137#1" to="-8779955#2" departLane="best" type="veh_passenger"/>
    <trip id="veh128" depart="31.49" from="8662974" to="498068499" departLane="best" type="veh_passenger"/>
    <trip id="veh129" depart="31.73" from="314210147" to="972439714" departLane="best" type="veh_passenger"/>
    <trip id="veh130" depart="31.98" from="431226489" to="-107913067#2" departLane="best" type="veh_passenger"/>
    <trip id="veh131" depart="32.23" from="839495191#1" to="218524085#2" departLane="best" type="veh_passenger"/>
    <trip id="veh132" depart="32.47" from="4543344#7" to="965997784#6-AddedOnRampEdge" departLane="best" type="veh_passenger"/>
    <trip id="veh133" depart="32.72" from="-681772141" to="-4964150#0" departLane="best" type="veh_passenger" departSpeed="max"/>
    <trip id="veh134" depart="32.96" from="-4600699#2" to="287876855#0" departLane="best" type="veh_passenger"/>
    <trip id="veh135" depart="33.21" from="136231427#1" to="313446043#1" departLane="best" type="veh_passenger"/>
    <trip id="veh136" depart="33.46" from="5060538#0" to="-9874683#4" departLane="best" type="veh_passenger"/>
    <trip id="veh137" depart="33.70" from="366392991#5" to="1356976890" departLane="best" type="veh_passenger"/>
    <trip id="veh138" depart="33.95" from="279401377#0" to="964084665#0" departLane="best" type="veh_passenger"/>
    <trip id="veh139" depart="34.19" from="884638135" to="-314924434#0" departLane="best" type="veh_passenger"/>
    <trip id="veh140" depart="34.44" from="256923539" to="160511863#0" departLane="best" type="veh_passenger"/>
    <trip id="veh141" depart="34.69" from="-10597939#2" to="669480952" departLane="best" type="veh_passenger" departSpeed="max"/>
    <trip id="veh142" depart="34.93" from="378662382" to="1348029202#0" departLane="best" type="veh_passenger" departSpeed="max"/>
    <trip id="veh143" depart="35.18" from="518694397" to="287526405#1" departLane="best" type="veh_passenger"/>
    <trip id="veh144" depart="35.42" from="257815706#4" to="-11257528#1" departLane="best" type="veh_passenger"/>
    <trip id="veh145" depart="35.67" from="-281556157#0" to="959887595" departLane="best" type="veh_passenger"/>
    <trip id="veh146" depart="35.92" from="964084663#1" to="285774891#0" departLane="best" type="veh_passenger"/>
    <trip id="veh147" depart="36.16" from="8665859#1" to="29192740-AddedOffRampEdge" departLane="best" type="veh_passenger"/>
    <trip id="veh148" depart="36.41" from="-8106575#3" to="-645091676" departLane="best" type="veh_passenger"/>
    <trip id="veh149" depart="36.65" from="218524085#0" to="964011555" departLane="best" type="veh_passenger"/>
    <trip id="veh150" depart="36.90" from="8066190#0" to="897564411-AddedOffRampEdge" departLane="best" type="veh_passenger"/>
    <trip id="veh151" depart="37.15" from="964034057#1" to="1026252225#1" departLane="best" type="veh_passenger"/>
    <trip id="veh152" depart="37.39" from="121429640#0" to="-447790613" departLane="best" type="veh_passenger"/>
    <trip id="veh153" depart="37.64" from="699964174#1" to="959899049" departLane="best" type="veh_passenger"/>
    <trip id="veh154" depart="37.88" from="253072124#3" to="356685168" departLane="best" type="veh_passenger"/>
    <trip id="veh155" depart="38.13" from="-8658608#1" to="965739913#0" departLane="best" type="veh_passenger" departSpeed="max"/>
    <trip id="veh156" depart="38.38" from="936884775#2" to="9704066#2" departLane="best" type="veh_passenger"/>
    <trip id="veh157" depart="38.62" from="8107787#0" to="959608352#1" departLane="best" type="veh_passenger" departSpeed="max"/>
    <trip id="veh158" depart="38.87" from="-133436790#9" to="518698883#4" departLane="best" type="veh_passenger"/>
    <trip id="veh159" depart="39.11" from="224943518#1" to="965739923#1" departLane="best" type="veh_passenger"/>
    <trip id="veh160" depart="39.36" from="8098292#0" to="936876470#1" departLane="best" type="veh_passenger"/>
    <trip id="veh161" depart="39.61" from="8107787#0" to="136463491#0" departLane="best" type="veh_passenger" departSpeed="max"/>
    <trip id="veh162" depart="39.85" from="70944848#0" to="-4600789#4" departLane="best" type="veh_passenger"/>
    <trip id="veh163" depart="40.10" from="9532072#1" to="890076674#0" departLane="best" type="veh_passenger"/>
    <trip id="veh164" depart="40.34" from="1027717079" to="84545078#5" departLane="best" type="veh_passenger"/>
    <trip id="veh165" depart="40.59" from="278697326#6" to="221976191" departLane="best" type="veh_passenger"/>
    <trip id="veh166" depart="40.84" from="788748799" to="107914741#1" departLane="best" type="veh_passenger"/>
    <trip id="veh167" depart="41.08" from="-133436790#12" to="-9703145" departLane="best" type="veh_passenger"/>
    <trip id="veh168" depart="41.33" from="222586253" to="936876470#2" departLane="best" type="veh_passenger"/>
    <trip id="veh169" depart="41.58" from="970173559#1" to="162287181#1" departLane="best" type="veh_passenger"/>
    <trip id="veh170" depart="41.82" from="378670418#2" to="253082642#2" departLane="best" type="veh_passenger"/>
    <trip id="veh171" depart="42.07" from="9704088#1" to="284048216" departLane="best" type="veh_passenger"/>
    <trip id="veh172" depart="42.31" from="966301926#0" to="-4917906#1" departLane="best" type="veh_passenger"/>
    <trip id="veh173" depart="42.56" from="970176925#0" to="-9633901#5" departLane="best" type="veh_passenger"/>
    <trip id="veh174" depart="42.81" from="970170419" to="136231427#8" departLane="best" type="veh_passenger"/>
    <trip id="veh175" depart="43.05" from="-4600729#3" to="277932254#1" departLane="best" type="veh_passenger"/>
    <trip id="veh176" depart="43.30" from="516261785#0" to="222469876#3" departLane="best" type="veh_passenger"/>
    <trip id="veh177" depart="43.54" from="30120518#3" to="280481805#2" departLane="best" type="veh_passenger"/>
    <trip id="veh178" depart="43.79" from="253055132#1" to="29123843#0" departLane="best" type="veh_passenger"/>
    <trip id="veh179" depart="44.04" from="126238033#2" to="5060535#4" departLane="best" type="veh_passenger"/>
    <trip id="veh180" depart="44.28" from="-1033873896" to="965704222#1" departLane="best" type="veh_passenger"/>
    <trip id="veh181" depart="44.53" from="284021502#2" to="515871628#0" departLane="best" type="veh_passenger"/>
    <trip id="veh182" depart="44.77" from="518694400#3" to="4606527#4" departLane="best" type="veh_passenger"/>
    <trip id="veh183" depart="45.02" from="240377410#10" to="-280763539#0" departLane="best" type="veh_passenger"/>
    <trip id="veh184" depart="45.27" from="4543351#0" to="227111397#3" departLane="best" type="veh_passenger"/>
    <trip id="veh185" depart="45.51" from="221976193#1" to="885051181" departLane="best" type="veh_passenger"/>
    <trip id="veh186" depart="45.76" from="509363198" to="218733208#0" departLane="best" type="veh_passenger" departSpeed="max"/>
    <trip id="veh187" depart="46.00" from="218733208#5" to="256196098" departLane="best" type="veh_passenger"/>
    <trip id="veh188" depart="46.25" from="253062324#0-AddedOnRampEdge" to="217957246#9" departLane="best" type="veh_passenger"/>
    <trip id="veh189" depart="46.50" from="-642722831" to="265652508#7" departLane="best" type="veh_passenger"/>
    <trip id="veh190" depart="46.74" from="966555433#1" to="4680936#1" departLane="best" type="veh_passenger"/>
    <trip id="veh191" depart="46.99" from="964074562" to="327034805#0" departLane="best" type="veh_passenger"/>
    <trip id="veh192" depart="47.23" from="202712913#1" to="286637229" departLane="best" type="veh_passenger"/>
    <trip id="veh193" depart="47.48" from="-1013326814" to="181134377" departLane="best" type="veh_passenger" departSpeed="max"/>
    <trip id="veh194" depart="47.73" from="265652508#6" to="29183541#1" departLane="best" type="veh_passenger"/>
    <trip id="veh195" depart="47.97" from="431226503" to="279160692#0" departLane="best" type="veh_passenger"/>
    <trip id="veh196" depart="48.22" from="277880835" to="1035364163" departLane="best" type="veh_passenger"/>
    <trip id="veh197" depart="48.46" from="279160692#1" to="964038112" departLane="best" type="veh_passenger"/>
    <trip id="veh198" depart="48.71" from="-290471790#2" to="280765131" departLane="best" type="veh_passenger"/>
    <trip id="veh199" depart="48.96" from="361219110#4" to="227729326#0" departLane="best" type="veh_passenger"/>
    <trip id="veh200" depart="49.20" from="84545078#1" to="577365177" departLane="best" type="veh_passenger"/>
    <trip id="veh201" depart="49.45" from="4600729#3" to="10644905#0" departLane="best" type="veh_passenger"/>
    <trip id="veh202" depart="49.69" from="-9677604#7" to="-134997252#7" departLane="best" type="veh_passenger"/>
    <trip id="veh203" depart="49.94" from="115779436" to="279164305" departLane="best" type="veh_passenger"/>
    <trip id="veh204" depart="50.19" from="885775951#1" to="-281821417#0" departLane="best" type="veh_passenger"/>
    <trip id="veh205" depart="50.43" from="255606409-AddedOffRampEdge" to="378662378" departLane="best" type="veh_passenger"/>
    <trip id="veh206" depart="50.68" from="-964356223" to="497789342#3" departLane="best" type="veh_passenger" departSpeed="max"/>
    <trip id="veh207" depart="50.92" from="279413616#1" to="1222456205#3" departLane="best" type="veh_passenger"/>
    <trip id="veh208" depart="51.17" from="4498300" to="-10597967#9" departLane="best" type="veh_passenger"/>
    <trip id="veh209" depart="51.42" from="550446951#1" to="664436111#1" departLane="best" type="veh_passenger"/>
    <trip id="veh210" depart="51.66" from="-4600687#2" to="269690134#0" departLane="best" type="veh_passenger"/>
    <trip id="veh211" depart="51.91" from="-8887571#1" to="970169177" departLane="best" type="veh_passenger"/>
    <trip id="veh212" depart="52.15" from="280483526" to="-235026233#0" departLane="best" type="veh_passenger"/>
    <trip id="veh213" depart="52.40" from="121427093#3" to="885117246" departLane="best" type="veh_passenger"/>
    <trip id="veh214" depart="52.65" from="278538157#5" to="8105403#5" departLane="best" type="veh_passenger"/>
    <trip id="veh215" depart="52.89" from="4567163#0" to="978303106#4" departLane="best" type="veh_passenger"/>
    <trip id="veh216" depart="53.14" from="292774386#1" to="9677627#3" departLane="best" type="veh_passenger"/>
    <trip id="veh217" depart="53.38" from="9633962#3" to="31750061#0" departLane="best" type="veh_passenger"/>
    <trip id="veh218" depart="53.63" from="508876222" to="280302516#2" departLane="best" type="veh_passenger" departSpeed="max"/>
    <trip id="veh219" depart="53.88" from="8662655#1" to="286596105#2" departLane="best" type="veh_passenger"/>
    <trip id="veh220" depart="54.12" from="964012732" to="540535481#0" departLane="best" type="veh_passenger"/>
    <trip id="veh221" depart="54.37" from="279161382" to="133436790#19" departLane="best" type="veh_passenger"/>
    <trip id="veh222" depart="54.61" from="118841917" to="386016117#0" departLane="best" type="veh_passenger" departSpeed="max"/>
    <trip id="veh223" depart="54.86" from="644622263" to="281465644#2" departLane="best" type="veh_passenger"/>
    <trip id="veh224" depart="55.11" from="338322630#0" to="155055579#0" departLane="best" type="veh_passenger"/>
    <trip id="veh225" depart="55.35" from="-283264875#1" to="181034617#2" departLane="best" type="veh_passenger"/>
    <trip id="veh226" depart="55.60" from="1352265128" to="222585496#1" departLane="best" type="veh_passenger"/>
    <trip id="veh227" depart="55.84" from="284031798#2" to="-8105403#1" departLane="best" type="veh_passenger"/>
    <trip id="veh228" depart="56.09" from="10597967#1" to="497545503#2-AddedOnRampEdge" departLane="best" type="veh_passenger"/>
    <trip id="veh229" depart="56.34" from="497935294" to="-279106898" departLane="best" type="veh_passenger"/>
    <trip id="veh230" depart="56.58" from="253082621#3" to="284860358#2" departLane="best" type="veh_passenger"/>
    <trip id="veh231" depart="56.83" from="256100331#2" to="1023470328#0" departLane="best" type="veh_passenger"/>
    <trip id="veh232" depart="57.07" from="256199405#0" to="964084663#2" departLane="best" type="veh_passenger"/>
    <trip id="veh233" depart="57.32" from="291702377#1" to="497789340#2" departLane="best" type="veh_passenger"/>
    <trip id="veh234" depart="57.57" from="8887574#2" to="645072522#1" departLane="best" type="veh_passenger"/>
    <trip id="veh235" depart="57.81" from="251869887#0" to="-10600955#3" departLane="best" type="veh_passenger"/>
    <trip id="veh236" depart="58.06" from="227815901#0" to="593928730#5" departLane="best" type="veh_passenger"/>
    <trip id="veh237" depart="58.30" from="8887520#0" to="970119719#1" departLane="best" type="veh_passenger"/>
    <trip id="veh238" depart="58.55" from="256196102#0" to="5580329#0" departLane="best" type="veh_passenger"/>
    <trip id="veh239" depart="58.80" from="284245997" to="30636945#0" departLane="best" type="veh_passenger"/>
    <trip id="veh240" depart="59.04" from="275829028#2" to="-160511863#3" departLane="best" type="veh_passenger"/>
    <trip id="veh241" depart="59.29" from="227106722#2" to="471451932#1" departLane="best" type="veh_passenger"/>
    <trip id="veh242" depart="59.53" from="253062337#3" to="-8887546#1" departLane="best" type="veh_passenger"/>
    <trip id="veh243" depart="59.78" from="278930071#0" to="-645337132" departLane="best" type="veh_passenger"/>
    <trip id="veh244" depart="60.03" from="325789284#1" to="-1379123252" departLane="best" type="veh_passenger"/>
    <trip id="veh245" depart="60.27" from="253055165#1" to="289562963" departLane="best" type="veh_passenger"/>
    <trip id="veh246" depart="60.52" from="-136554478#2" to="425343178#0" departLane="best" type="veh_passenger"/>
    <trip id="veh247" depart="60.76" from="-683262001#2" to="279106913" departLane="best" type="veh_passenger"/>
    <trip id="veh248" depart="61.01" from="-234350985#4" to="253055143#6" departLane="best" type="veh_passenger"/>
    <trip id="veh249" depart="61.26" from="-9790219#1" to="227106445" departLane="best" type="veh_passenger"/>