<routes xmlns:xsi="http://www.w3.org/2001/XMLSchema-instance" xsi:noNamespaceSchemaLocation="http://sumo.dlr.de/xsd/routes_file.xsd">
    <vType id="electric_vehicle" length="5" accel="2.6" decel="4.5" sigma="0.5" maxSpeed="50" mass="1036.00" color="0,1,0" emissionClass="Energy/default"><param key="has.battery.device" value="true" /><param key="device.battery.capacity" value="64000" /><param key="device.battery.maximumChargeRate" value="150000" /><param key="maximumPower" value="150000" /><param key="airDragCoefficient" value="0.35" /><param key="constantPowerIntake" value="100" /><param key="frontSurfaceArea" value="2.6" /><param key="propulsionEfficiency" value="0.98" /><param key="radialDragCoefficient" value="0.1" /><param key="recuperationEfficiency" value="0.96" /><param key="rollDragCoefficient" value="0.01" /><param key="stoppingThreshold" value="0.1" /><param key="rotatingMass" value="40" /></vType><vType id="normal_vehicle" length="5" accel="2.6" decel="4.5" sigma="0.5" maxSpeed="50" color="0.5,0.5,0.5" /><vType id="veh_passenger" vClass="passenger" />
    <vehicle id="veh0" type="normal_vehicle" depart="0.00">
        <route edges="338322630#1 8764191 8764173#2 8764178#0 8764178#1 8764178#2 8764178#3 8764178#4 297050844#0 297050844#1 297050844#2 225855920 4608762#0 4608762#1 4608760 28833905 4600685 967646588 964628766 517437135#0 715407457 517445582#0 280480844#0 280480844#1 -127002719#2 -222030195#2 -133114811#1" />
    </vehicle>
    <vehicle id="veh1" type="normal_vehicle" depart="0.20">
        <route edges="1024982826 253082647#0 253082647#3 253082647#5 517465747#0 517465747#1 289549129#0 289549129#1 283271326 517465753#0 392267560#1 517465755#1 964391049#1 517467234 517467233 517465754#0 517465754#1 517465754#2 518693519 283271321 518693520 266432236#1 266432236#2 266432236#3 266432236#4 266432236#4-AddedOffRampEdge 361219107#0 361219107#1 266432234#0 266432234#1 266432234#2 266432234#3 266432234#4-AddedOnRampEdge 266432234#4 518693518#0 518693515#0 1024978384 518693514 515871625#0 515871625#1 515871625#2 966558214#0 515871624#1 256766492#0 1026252256#0 9532142#0 9532142#1 116650164 116650165#0 116650165#1 116650165#2 885500882 253055164#0 253055164#1 964416121 253055165#0 253055165#1 -724151062#2 -724151062#1 -724151062#0 -508190012#5 -508190012#4 -508190012#3 -508190012#2 -508190012#1 9633896#0 9633896#1 9633899#2 -9633901#6 -9633905 -9633907#1 9633887#0 9633887#1 87289497#0 87289497#1 87289497#2 87289497#3 87289497#4 87289497#5 87289497#6 87289497#8 87289497#9 218025463#0 218025463#1 -91582196#4 -91582196#3 -91582196#2 -91582196#0 784361283#3 784361283#4 91979794#3 91979794#4 -91979794#4 -91979794#3" />
    </vehicle>
    <vehicle id="veh2" type="normal_vehicle" depart="0.40">
        <route edges="518693511#3 10600955#0 -10600955#0 518693510#0 518693509#0 518693509#1 518698883#2 518698883#3 518698883#4 518698882 253055143#0 253055143#1 253055143#2 253055143#4 253055143#6 518713504#0 518713489#1 289666160 1121902290#0 1121902295#0 1121918463 518713487 1014048199 289666161#0 289666161#1 970176925#0 970176925#1 970176922 970176924 964415658 964415659 314942781#0 314942781#2 314942781#3 289623982#0 289623982#1 289623982#2 289623982#3 289623982#4 289623982#5 970176808 289666157#0 289666157#2 289666157#3 284136898#0 284136898#1 964369325#0 964369325#1 256196102#0 256196102#1 965683060 8107797#0 8107797#1 -284132614#2 -4600719#5 -4600719#4 -4600719#3 -4600719#2 -4600719#1 4894747#1 4894747#2 378662378 4600673" />
    </vehicle>
    <vehicle id="veh3" type="normal_vehicle" depart="0.60">
        <route edges="959599419#0 963776267#0 240377411 236831668 251870222 251870222-AddedOffRampEdge 29123838#1 251870221 240298832#1 240298832#2 240298832#3 240299063#0 237810121#2 240298828 959592266 959588028 240298826#1 8095262#0 8095262#1 -280247434#1" />
    </vehicle>
    <vehicle id="veh4" type="normal_vehicle" depart="0.80">
        <route edges="244672352#0 244672352#1 288922860#2 253062289#0 1326529224#0 237810122#0 237810122#2 237810122#3 178502495#3 289660483#0 289660483#1 289660483#3 244672371#1 244672371#2-AddedOnRampEdge 244672371#2 518112759#0 244672373 970173563 970173565#0 278292894#1 278292894#2 965707624#1 4498809#0 4498809#2 4498809#7 4498809#10 4498809#13 4498809#15 5152341#1 5152341#2 282335130#0 282335130#1 970173985#0 965646653 4894308 4894308-AddedOffRampEdge 4894307 4894306#0 253082625#0 265652508#0 265652508#1 265652508#2 265652508#3 265652508#4 265652508#5 265652508#6 265652508#7 5109324 253055163#0 253055163#1 8779948#0 8779948#1 9633983#0 9633983#1 -133436789#0" />
    </vehicle>
    <vehicle id="veh5" type="normal_vehicle" depart="1.00">
        <route edges="-886084672 959899047 4560345 1035383464#0 1035383464#1 503662641#0 133390814#0 145405535 133390815 162504816 148090654 148089273 -644622258#5 -644622258#4 -644622258#3 -644622258#2 -644622258#1 -644622258#0 -701694599 133390812#0 133390812#1 253055174 -701694600 8795554#0 8795554#1 -4721014 -645076487 4887832#8 4887832#9 287874200#0 227729325#4 4880558#0 4880558#1 4880558#2 644668492 701694610#3 8764196 294165159#0 294165159#1 294165158#0 294165158#1 229839800 8764178#4 297050844#0 297050844#1 297050844#2 225855920 4608762#0 4608762#1 4608760 28833905 4600685 30636825#0 279164935#0 279164935#1" />
    </vehicle>
    <vehicle id="veh6" type="normal_vehicle" depart="1.20">
        <route edges="-133240825#0 8662975 -8662975 133240825#0 223920705#0 223920707 223920706 253072124#17 644050025#0 644050025#1 5060544#0 425343181#2 425343181#3 568364897#1 5109324 253055163#0 253055163#1 253055162 -513973676#4 -513973676#3 -513973676#2 -513973676#1 -513973676#0 -644623724 -288052112#6 -288052112#5 -288052112#4 -288052112#3 -288052112#2 -288052112#1 -288052112#0 -386016127#1 -386016127#0 -386016128#4 -386016128#3 8662320#0 -8662318#3 -8658701#0" />
    </vehicle>
    <vehicle id="veh7" type="normal_vehicle" depart="1.40">
        <route edges="378662406#1 256100331#0 256100331#1 256100331#2 29192740 29192740-AddedOffRampEdge 4887834#0 29192214 497789340#2 497789340#3 517465755#1 964391049#1 517467234 517465745 283271325#1 945120647#0 945120647#1 945120647#2 945120647#3 289089524#0 289089524#1 289089524#2 965713831 285884322 253062288#1 227814051#0 227814051#1 964074557 269690104 656716947#0 656716947#1 227814684#0 227814684#1 5173351#1 5173351#2 5173351#3 378670416 1028398161#0 1028398161#1 1028398161#2 279406737#0 279406737#1 281599307 281599130#3" />
    </vehicle>
    <vehicle id="veh8" type="normal_vehicle" depart="1.60">
        <route edges="-8887546#1 -8887546#0 133388586#2 164341327#0 164341327#1 8887524#1 8887524#2 161536141#0 161536141#1 645353778 253072124#21 645353779 278697248#0 4894892#0 4894892#1 221976193#0 221976193#1 221976193#2 221976193#3 221976193#4 221976193#5 221976193#6 221977253 497545498#0 5204439#2 279161386#0 279163180 279163181#0 279163181#1-AddedOnRampEdge 279163181#1 279163181#3 278275050#0 278275050#1-AddedOnRampEdge 278275050#1 518112767 244672364#0 244672364#0-AddedOffRampEdge 278275532 278275976#0 28975512#1" />
    </vehicle>
    <vehicle id="veh9" type="electric_vehicle" depart="1.80">
        <route edges="8106589#0 8106587#1 8106587#2 -4515353#2 -218521175#3 -218521175#2 -218521175#1 -218521175#0 -1007845794 -8106572 -884592631 253055188#0 253055188#1 10600953#0 10600953#1 253055153 -253055156#4 -253055156#3 -253055156#2 -253055156#1 -253055156#0 -10597956#4" />
    </vehicle>
    <vehicle id="veh10" type="electric_vehicle" depart="2.00">
        <route edges="8106568#1 299672709#3 299672709#4 299672709#5 299672709#6 299672709#7 107547625#0 -279485805#4 -279485805#3 -279485805#2 -279485805#1 279485806#1 1222456209 1222456205#0 1222456205#2 1222456205#3 1222456205#4 378662406#1 256100331#0 256100331#1 256100331#2 29192740 29192740-AddedOffRampEdge 4887834#0 29192214 517457850 278386793#0 278386793#1 278361643 278362041#0 278362041#1 285883731#4 285883731#5 114413616#1 654360300#1 278514575#1 282340560#2 282340560#3 282340560#5 4498809#13 4498809#15 889471502#2 5171069#1 279160683#1 279160683#3 965731248#0 965731248#1 965969564 279160687#1 279160687#2 279160687#3 1222455752 279163183#1 963030989#0 963030989#1 963711184 963030988 959588029 279163182#0 279163182#1 279163182#2 279163182#3 9704085#0 964729570 964729571#0 279564164 281154572 288923543#0 288923543#1 281154641#1 279567958 965687875 281149186#0 281149186#1 279564821 -253062292 285963366 964077836 285963503#1 1348296771#0 1348296771#1 1222458249#0 1222458249#1 885051180 -281821417#4 -281821417#3 -281821417#2 4725013#3" />
    </vehicle>
    <vehicle id="veh11" type="normal_vehicle" depart="2.20">
        <route edges="1391974228#2 517461087 517461089#0 29192740 29192740-AddedOffRampEdge 4887834#0 29192214 517457850 278386793#0 278386793#1 278361643 278362041#0 278362041#1 285883731#4 285883731#5 114413616#1 654360300#1 278514575#1 282340560#2 282340560#3 282340560#5 4498809#13 4498809#15 889471502#2 889471502#5 4498809#0 5171071#1 278725054#0 278725054#2 965749901#0 965749901#1 278724834 278538157#0 278538157#1 278538157#3 278538157#4 278538157#5 278538157#6 278231131#0 963777612 279164147#1 279164147#2 279164148#0 664436111#0 -5364987#1" />
    </vehicle>
    <vehicle id="veh12" type="normal_vehicle" depart="2.40">
        <route edges="970168110#2 970168110#4 279402174#0 279402174#2 279402174#3 286637741#1 286637741#2 286637741#3 286637741#4 286637741#4-AddedOffRampEdge 815547605 815547607 577365180 890533375#0 890533374 278539785 970172106#0 965027589#1 114413613#2 281335824#0 281335824#2 965746264 284015050#0 284015050#1-AddedOnRampEdge 284015050#1 284015050#3 279262365 284019466#0 284019466#3 970170417 970170419 970170419-AddedOffRampEdge 970170413#0 279352166#0 279352166#1 279352166#2 196374470#0 196374470#1 966570835 966558214#0 515871624#1 256766492#0 1026252256#0 1026252256#1 1026252256#2 1026252256#3 1026252256#4 253055145#0 253055145#1 253055145#2 253055145#4 253055145#4-AddedOffRampEdge 1026252224 1026251690 253055142 1026251689 253055186#0 253055186#1 884592631 8106572 1007845794 218521175#0 8106579#1 8106579#2 1369965209" />
    </vehicle>
    <vehicle id="veh13" type="electric_vehicle" depart="2.60">
        <route edges="-281465646#3 -160511867#3 -160511867#2 9532053#0 9532053#1 9532053#3 9532053#4 9532053#5 116651083#0 116651083#1 240380134#1 964405636#0 964405636#1 256768734#1 253055141 253055140#0 240380120#0 240380120#2 240380120#3 240380149#0 240380149#2 240380149#4 240380149#7 240380149#8 240380149#10 240380149#11 984086647#0 984086647#2 256766490 885447253 256766491#2 31654382 31654384#0 31654384#1 31654384#2 31654384#3 31654384#4 279485806#1 1222456209 1222456205#0 1222456205#2 1222456205#3 1222456205#4 4894501#2 4515352#0 4515352#2 4515352#3 4515352#4 4515352#5 224943517#0 224943517#1 224943517#2 224943517#3 224943517#4 -284132614#6 -284132614#5 -284132614#3 -284132614#2" />
    </vehicle>
    <vehicle id="veh14" type="electric_vehicle" depart="2.80">
        <route edges="8779960#0 -427917677 253055170#3 253055170#4 253055170#5 253055170#6 253055170#7 644050028#0 644050028#1 644050028#2 963740918 227811504#0 253055169 281210811 222469868 386016123#1 222469878#0 222469878#1 218733208#0 218733208#1 218733208#2 218733208#3 218733208#4 218733208#5 218733209#0 218733209#1 218733209#2 221975627#5 221975627#6 498068495 498068494 221977256#0 221977256#1 292329793#0 292329793#1 292329793#2 292329793#3 292329793#4 292329793#5 701694615 498070687 515871628#0 515871628#1 292330199#0 292330199#1 292330199#2" />
    </vehicle>
    <vehicle id="veh15" type="normal_vehicle" depart="3.00">
        <route edges="8106576#3 -8106583#2 -8106583#1 -8106583#0 107914741#3 4515353#0 4515353#1 4515353#2 4515353#3 4515353#4 4515353#5 299672709#0 299672709#1-AddedOnRampEdge 299672709#1 299672709#2 299672709#3 299672709#4 299672709#5 299672709#6 299672709#7 107547625#0 -279485805#4 -279485805#3 -279485805#2 -279485805#1 1222456203#4 1222456203#5 1222456203#6 1222456203#7 31654385 31654386#0 256766856 256766852#2 945120648#0 945120648#1 256766495#0 256766495#1 256766495#2 256766495#4 970170412#1 970170412#2 970170412#5 279263441 284020716#0 378670413#0 378670413#0-AddedOffRampEdge 378670413#1 965746263 965746262 284015064#0-AddedOnRampEdge 284015064#0 284015064#1 965023709 965953968 202714124#0 202714124#1 114413608#1 114413608#1-AddedOffRampEdge 890533371 280903105 280903474 970172104 970172107 964026274 970172108#0 290024353 815547616#0 815547616#0-AddedOffRampEdge 815547616#1 815547609#0 815547609#1 294600492#1 294600492#2 251869887#0 251869887#1 5173326#0" />
    </vehicle>
    <vehicle id="veh16" type="normal_vehicle" depart="3.20">
        <route edges="280481805#9 9703120#4 964716003 253062311#0 253062311#1 253062311#2 253062312#0 253062312#1 253062312#2 253062312#3 599405451#0 599405451#1 964716001#0 964716001#1 279568031 -281154641#1 -288923543#1 -288923543#0 -281154572 -279564164 -964729571#2 -964729570 -964729569#1 -278724456#4 -278724456#2 -278724456#0 -736797543#4 74395827#0 74395827#1 74395823#7 9704065" />
    </vehicle>
    <vehicle id="veh17" type="normal_vehicle" depart="3.40">
        <route edges="221976193#1 221976193#2 221976193#3 221976193#4 221976193#5 221976193#6 221977253 497545498#0 5204439#2 279161379#0 279161379#2 279161379#3 279161379#4 815576208#1 279160682#1 965731249 965969563#1 279160686#2 538108843#1 538108843#2 965707624#1 965707624#3 8097827#0 8097827#1 8097827#2 967685430 1015627203 227812175#2 278726720#1 288919988#1 288919988#2 278517480#1 114413614#1 8097770#0 8097770#2 8097770#3 392267559 283271317" />
    </vehicle>
    <vehicle id="veh18" type="normal_vehicle" depart="3.60">
        <route edges="8658701#1 -8658701#1 -8658701#0 -386016128#1 -386016128#0 8662312 386016130 386016131 386016124#1 386016124#2 4608763#0 4608763#1 4608763#2 4608763#3 516261782#0 516261782#1 281210811 222469868 386016123#1 222469878#0 222469878#1 218733208#0 218733208#1 218733208#2 218733208#3 218733208#4 218733208#5 218733209#0 218733209#1 218733209#2 221975627#5 221975627#6 498068495 498068494 221977256#0 221977256#1 292329793#0 292329793#1 292329793#2 292329793#3 292329793#4 292329793#5 701694615 498070687 515871628#0 515871628#1 292330199#0 292330199#1 292330199#2 292330199#3 292330199#4 292330199#5 292330199#6 498070685#0 498070685#1 4608762#0 4608762#1 4608760 28833905 4600685 967646588 964628766 517437135#0 715407457 517445582#0 517445569#1 517445569#2 517445569#3 517445569#4 284051421#1 284051421#2 284051421#3 284051421#4 284051421#5 284051421#6 284051421#7 284051421#8 284051421#9 284051421#10 284051421#11 284051421#12 284051421#13 284051421#14 284051421#15 517445579#0 517445579#1 4600726#0 4600726#1 701069966 284860358#1 284860358#2 701095143 701095591#0 701095591#1 701095591#2 967648690#0 967648690#1 330225313#0 330225313#1 -30420783 30420783" />
    </vehicle>
    <vehicle id="veh19" type="electric_vehicle" depart="3.80">
        <route edges="885775951#0 -235026228#8 -235026228#5 9874664#0 9874664#1 963063696#0 518713489#1 289666160 1121902290#0 1121902295#0 1121918463 518713487 1014048199 289666161#0 289666161#1 970176925#0 970176925#1 970176922 970176924 964415658 964415659 314942781#0 314942781#2 314942781#3 289623982#0 289623982#1 289623982#2 289623982#3 289623982#4 289623982#5 970176808 289666155#0 289666155#1 970176807 970176806#0 970176806#1 970176806#2 970176806#3 970176806#4 541764085#0 4543345#0 256100331#0 256100331#1 256100331#2 29192740 29192740-AddedOffRampEdge 4887834#0 29192214 517457850 278386793#0 278386793#1 278361643 278362041#0 278362041#1 285883731#4 285883731#5 114413616#1 654360300#1 278514575#1 282340560#2 282340560#3 282340560#5 4498809#13 4498809#15 889471502#2 5171069#1 279160683#1 279160683#3 965731248#0 965731248#1 965969564 279160687#1 279160687#2 279160687#3 1222455752 279163183#1 963030989#0 963030989#1 963711184 963030988 959588029 279163182#0 279163182#1 279163182#2 279163182#3 9704085#0 964729570 964729571#0 279564164 281154572 288923543#0 288923543#1 281154641#1 279567958 965687875 281149186#0 281149186#1 279564821 -253062292 285963366 964077836 285963503#1 1348296771#0 1348296771#1 9677585#0 9677585#1 280483513#4 -131708515#1 -131708515#0 -253062323#1 -253062323#0 253062322#0 253062322#1 -131708160#2 -278526657#1 -278526657#0 281823638#0 281823638#1 288854797#1" />
    </vehicle>
    <vehicle id="veh20" type="normal_vehicle" depart="4.00">
        <route edges="4887832#5 4887832#6 4887832#7 4887832#8 4887832#9 287874200#0 227729325#4 227729325#5 227729325#6 227729325#7 227729325#8 227729325#9 227729264#1 227729264#2 227729264#3 227729264#5 227729264#6 253082626#0 253082626#1 227729587#1 227729587#2 5109324 253055163#0 253055163#1 253055162 -513973676#4 -513973676#3 -513973676#2 -513973676#1 -513973676#0 -644623724 -288052112#6 -288052112#5 -288052112#4 -288052112#3 -288052112#2 -288052112#1 -288052112#0 -386016127#1 -386016127#0 -386016128#4 -386016128#3 -386016128#2 -386016128#1 -386016128#0 -197593194#2 -197593194#1 -197593194#0" />
    </vehicle>
    <vehicle id="veh21" type="normal_vehicle" depart="4.20">
        <route edges="-9529619#6 9529619#6 978303106#3 978303106#4 283264875#0 283264875#1 283264875#2 281332801#1 378662373#0 378662373#1 378662373#2 378662361 361219106 655878792 378662375 4913316 32135740 897564411 897564411-AddedOffRampEdge 30684435#0 30684435#0-AddedOffRampEdge 30684435#1 497935300-AddedOnRampEdge 497935300 61673077 61673077-AddedOffRampEdge 386016125#0 386016125#1 386016125#2 386016124#0 386016124#1 386016124#2 4608763#0 4608763#1 4608763#2 4608763#3 516261782#0 516261782#1 281210811 222469868 386016123#1 222469878#0 222469878#1 218733208#0 218733208#1 218733208#2 218733208#3 218733208#4 218733208#5 218733209#0 218733209#1 218733209#2 221975627#5 221975627#6 498068495 498068494 221977256#0 221977256#1 292329793#0 292329793#1 292329793#2 292329793#3 292329793#4 292329793#5 701694615 498070687 515871628#0 515871628#1 292330199#0 292330199#1 292330199#2 292330199#3 292330199#4 292330199#5 292330199#6 498070685#0 498070685#1 4608762#0 4608762#1 4608760 28833905 4600685 967646588 964628766 517437135#0 715407457 517445582#0 517445569#1 517445569#2 517445569#3 517445569#4 284051421#1 284051421#2 284051421#3 284051421#4 284051421#5 284051421#6 284051421#7 284051421#8 284051421#9 284051421#10 284051421#11 284051421#12 284051421#13 284051421#14 284051421#15 517445579#0 517445579#1 4600726#0 4600726#1 701069966 284860358#1 284860358#2 10644900 701095141 -280016779#3 -280016779#2 -280016779#0 278910261 280016751#0 280016751#1 289138279#0 10644908#0" />
    </vehicle>
    <vehicle id="veh22" type="normal_vehicle" depart="4.40">
        <route edges="-278724707#0 278724707#0 279485073#0 244672380#2 244672380#3 244672380#4 244672380#5 244672380#6 244672380#7 965749899#1 278725056#0 256924423#3 4498809#7 4498809#10 4498809#13 4498809#15 5152341#1 5152341#2 282335130#0 282335130#1 970173985#0 965646653 4894308 4894308-AddedOffRampEdge 4894307 4894306#0 227809967#1 253055133 5098727#0 5098727#1 279484836#0 279484836#1 -959887599 -427907457#1 -427907457#0 288052112#1 288052112#2 288052112#3 288052112#4 288052112#5 288052112#6 -959887594 -959887595" />
    </vehicle>
    <vehicle id="veh23" type="normal_vehicle" depart="4.60">
        <route edges="-287321816#0 10644908#5 815549498 9805959#0 9805959#1 9805959#2 9805959#3 9805959#4 9805959#5 9805959#6 9805959#7 9805959#8 9805959#9 9805959#10 727630529#0 727630529#1 4603729 516895896 9704155#0 9704155#1 9704155#3 9704155#5 9704155#6 9704155#7 964682951#0 244672359#0 244672359#3 244672359#4 244672358#1 244672352#0 244672352#1 288922860#2 253062289#0 1326529223 1326529225#0 1326529225#1 279028650#0-AddedOnRampEdge 279028650#0 279099847 279099847-AddedOffRampEdge 29123824#0 29123824#1 29123824#2 29123824#3 29123841#0 251870225 251870226#0 251870226#1 970173558 970173560 970173559#0 970173559#1 253062324#0-AddedOnRampEdge 253062324#0 4527458#0 4527458#2 1037191311" />
    </vehicle>
    <vehicle id="veh24" type="normal_vehicle" depart="4.80">
        <route edges="327003418#2 327003418#3 327003418#4 784361282 -217950688#4 -217950688#3 -217950688#2 -217950688#1 -217950688#0 -966533351#1 -966533351#0 -253055136#15 -253055136#14 -253055136#13 -253055136#12 -253055136#11 -253055136#10 9633901#4 9633883#1 9633883#2 -218100062#2 -218100062#1 -218100062#0 -218100064#3 -218100064#2 -218100064#0 -217957235#1 -217957235#0 217957235#0 217957235#1" />
    </vehicle>
    <vehicle id="veh25" type="normal_vehicle" depart="5.00">
        <route edges="218100064#0 218100064#2 218100064#3 218100062#0 218100062#1 218100062#2 218100062#3 -9633883#1 -9633883#0 -9633896#1 9633910#0 9633910#1 9633910#2 9633910#3 9633910#4 9633910#5 9633910#6 9633910#7 289209488 256768736 256768738#0 253055178#0 253055178#1 9532109 965997784#6-AddedOnRampEdge 965997784#6 240380126#0 240380126#1 4680936#0 4680936#1 4680936#2 279352166#1 279352166#2 240380149#7 240380149#8 240380149#10 240380149#11 984086647#0 984086647#2 256766490 885447253 256766862#0 510486887#0 510486887#1 510486887#2 510486887#3 1024982826 253082647#0 253082647#3 253082647#5 517465747#0 517465747#1 289549129#0 289549129#1 283271326 517465753#0 392267560#1 280413904#1 280413904#2 517457850 278371043#0 278371043#2 278371043#3 278371043#5 292625735 111829335 111829335-AddedOffRampEdge 497943939 497943940 8658695 292968642#0 292968642#1 292968642#2 292968642#3 292968642#4 292968642#6 61673080#0 61673080#1 964327199#0 964327199#1 8658699#0 8658699#1 287526534#0 287526534#1 287526534#2 287526534#3 287526534#5 287526534#6 287526534#7 287526534#8 287526534#9 644623723#0 644623723#1 38795409#3 -8780002#4 -8780002#3" />
    </vehicle>
    <vehicle id="veh26" type="normal_vehicle" depart="5.20">
        <route edges="-9790198#2 9790198#2 8795606#0 644622258#4 759238164 749073722 253055149#6 253055149#7 253055149#8 253055149#9 253055149#10 253055149#11 253055149#12 253055149#13 253055149#14 253055148#0 253055148#1 253055148#2 253055148#3 253055148#4 253055148#5 253055148#6 253055148#7 253055139#0 253055138#0 253082626#0 253082626#1 227729587#1 227729587#2 227729617#1 227729617#2 227729617#3 227729617#4 227729617#5 227729617#6 227729617#7 227729617#9 227729617#10 227729617#11 656301129#0 656301129#1 516261783 516261784 541727852 4662914 4517480#0 4517480#1-AddedOnRampEdge 4517480#1 965648321 28093730#0 28093730#2 28093730#2-AddedOffRampEdge 965645622#0 970173986#0 970173986#1 889471502#2 889471502#5 4498809#0 4498809#2 5173525#2 256924421#1 965969562#1 256924422#2 256924420#0 256923542#0 256923542#1 970173548#0 970173545#0 970173545#1 966005058#0 251869887#0 251869887#1 5173326#0 962025782 964691300#0 964691300#0-AddedOffRampEdge 964691300#1 285768126#0 285768126#1 285768126#3 279402173#0 279402173#2 279402173#3 279402173#3-AddedOffRampEdge 970167776#0 970167776#2 29182628 278582154 132387182 132387183 280764955#0 280764955#1 280764955#2 501291639#0 970154453#0 970154453#1 970154453#2 970154453#3 970154453#4 970154453#5 238822589 965962214" />
    </vehicle>
    <vehicle id="veh27" type="normal_vehicle" depart="5.40">
        <route edges="378662373#1 378662373#2 378662361 361219106 655878792 378662375 4913316 32135740 897564411 897564411-AddedOffRampEdge 4605642#0 4605642#1 497935303 356685168 497789345#0 497789345#0-AddedOffRampEdge 580613825 580613825-AddedOffRampEdge 160489690#0 510486902#0 510486902#2 280761616#0 280761616#1 288991219#2 114413612#0 114413612#1 1025611953 222586253 253062288#1 227814051#0 227814051#1 964074557 269690104 656716947#0 656716947#1 227814684#0 227814684#1 5173351#1 5173351#2 5173351#3 378670416 1028398161#0 1028398161#1 1028398161#2 285877387#0 285877387#1-AddedOnRampEdge 285877387#1 285877387#3 45978082#0 45978082#1 45978082#2 279401796#3 788748799 5154390#0 29433039#0" />
    </vehicle>
    <vehicle id="veh28" type="normal_vehicle" depart="5.60">
        <route edges="-701097142#0 330224532 701097143 278523425 5060536#0 5060536#1 284065558 964656618#0 964656618#1 907227752#0 907227752#1 1204967327 222033216#1 222033216#2 964716003 253062311#0 253062311#1 253062311#2 253062312#0 253062312#1 253062312#2 253062312#3 599405451#0 599405451#1 964716001#0 9677626#1 244672352#0 244672352#1 288922860#2 253062289#0 1326529224#0 237810122#0 237810122#2 237810122#3 178502495#3 289660483#0 289660483#1 289660483#3 244672371#1 244672371#2-AddedOnRampEdge 244672371#2 518112759#0 244672373 970173563 970173565#0 278292894#1 278292894#2 965707624#1 4498809#0 4498809#2 4498809#7 5171066#1 964420431#1 964435739#0 964435739#1 279160681#0 966301925#1 253082622#2 278736308#1 966301929#1 256199404#1 253062290#1 253062290#2 253062290#3 936876471#0 936876471#1 31559241 1436584513#0 1436584513#1 227814054 964074558#0 227814051#0 227814051#1 964074557 1339448163 253055183 378670420#0 510486900#0 510486900#1 378662394 -256207903 5173184#4 5173184#5 256207900#0 219554131 5173183#2" />
    </vehicle>
    <vehicle id="veh29" type="normal_vehicle" depart="5.80">
        <route edges="-644623723#1 -5098724#0 513973676#2 513973676#3 513973676#4 967925664 253055170#0 253055170#1 253055170#2 253055170#3 253055170#4 253055170#5 253055170#6 253055170#7 644050028#0 644050028#1 644050028#2 963740918 227811504#0 253055169 281210811 222469868 386016123#1 222469878#0 222469878#1 218733208#0 218733208#1 218733208#2 218733208#3 218733208#4 218733208#5 218733209#0 218733209#1 218733209#2 221975627#5 221975627#6 498068495 498068494 221977256#0 221977256#1 292329793#0 292329793#1 292329793#2 292329793#3 292329793#4 292329793#5 701694615 498070687 515871628#0 515871628#1 292330199#0 292330199#1 292330199#2 292330199#3 292330199#4 292330199#5 292330199#6 498070685#0 498070685#1 4608762#0 4608762#1 4608760 28833905 4600685 967646588 964628766 517437135#0 715407457 517445582#0 280480844#0 280480844#1 133114800#0 133114800#1 133114800#2 244672379#9 244672379#10 9704156 516893221 222031272#1 222031272#2 222031272#3" />
    </vehicle>
    <vehicle id="veh30" type="normal_vehicle" depart="6.00">
        <route edges="9788831#1 9788831#2 9788831#3 9788831#5 9788831#6 9788831#8 727630529#0 727630529#1 4603729 516895896 9704155#0 9704155#1 9704155#3 9704155#5 9704155#6 9704155#7 964682951#0 244672359#0 244672359#3 244672359#4 244672358#1 244672352#0 244672352#1 288922860#2 253062289#0 1326529224#0 237810122#0 237810122#2 237810122#3 178502495#3 289660483#0 289660483#1 289660483#3 244672371#1 244672371#2-AddedOnRampEdge 244672371#2 518112759#0 244672373 970173563 970173565#0 278292894#1 278292894#2 965707624#1 965707624#3 8097827#0 8097827#1 8097827#2 967685430 1015627203 227812175#2 278726720#1 288919988#1 288919988#2 278517471#1 278517471#2 1025611952#1 1025611952#2 4545273#0 4545273#1 4545274#1 4545274#1-AddedOffRampEdge 518718610#1 4527482#0 4527482#1 4527482#2 4527482#3 4527482#4 1338504299#0 1338504299#1 1338504298 378662403#0 4680938#0 1222456210#0 1222456210#3 1222456210#4 518718615#0 518718615#1 1137563306 136463493#0 970176805#1 289666157#0 52336750#0 52336750#1 52336750#2 359654773#0 359654773#1" />
    </vehicle>
    <vehicle id="veh31" type="normal_vehicle" depart="6.20">
        <route edges="284047058#0 284047058#1 279478185#0 279478185#2 964428311 288401402 964428310 256199405#0 256199405#2 279480169#0 279480096 1025611952#1 1025611952#2 4545273#0 4545273#1 4545274#1 4545274#1-AddedOffRampEdge 518718610#1 4527482#0 4527482#1 4527482#2 4527482#3 4527482#4 1338504299#0 1338504299#1 1338504298 378662403#0 4680938#0 1222456210#0 1222456210#3 1222456210#4 518718615#0 518718615#1 1137563306 136463493#0 970176805#1 289666157#0 52336750#0 52336750#1 52336750#2 359654774#0 359654774#1 359654774#2 359654774#3 359654774#4 359654774#5 593928730#0 593928730#1 593928730#2 593928730#3 593928730#4 -839495195#9 -839495195#8 -4662935#1 -4662935#0 4600797#11" />
    </vehicle>
    <vehicle id="veh32" type="normal_vehicle" depart="6.40">
        <route edges="87289743 683259189 -9633862#1 -9633862#0 -9633869#1 -9633869#0 -9532072#1 -278742814 218026783#2 845443581#0 845443581#1 222561711#0 222561711#1 256768737 256768738#0 253055178#0 253055178#1 9532109 965997784#6-AddedOnRampEdge 965997784#6 240380126#0 240380126#1 5060664 1025951116#0 970170412#0 970170412#1 970170412#2 970170412#5 279263441 284020716#0 378670413#0 378670413#0-AddedOffRampEdge 378670413#1 965746263 965746262 284015064#0-AddedOnRampEdge 284015064#0 284015064#1 965023709 965953968 202714124#0 202714124#1 114413608#1 114413608#1-AddedOffRampEdge 890533371 280903105 280903474 970172104 970172107 964026274 970172108#0 290024353 278540889#0 970172111#0 970172111#3 515871632 251869892 284047058#0 284047058#1 284048216 288357115 288357116 279478404#1 970173553 278231686#0 278231686#1-AddedOnRampEdge 278231686#1 965704223 278358667#0 890007898#0 890007898#1 890007898#2 890007898#3 188992752#0 188992752#1 188992752#2 188992752#3 188992752#4 188992752#5 279252530#1 289660480#0 289660480#2 237810125#0 237810125#1 160489608 279568779#0 288923571#1 960808138 281037105#1 281037105#3 281037105#4 281037105#6 288921337#1 244672379#1 244672379#2 244672379#4 244672379#5 244672379#6 244672379#8 244672379#9 244672379#10 9704156 516893221 222031272#1 222031272#2 222031272#3 30425345#0 30425345#1 30425345#2 284051421#3 284051421#4 284051421#5 284051421#6 284051421#7 284051421#8 284051421#9 284051421#10 284051421#11 284051421#12 284051421#13 284051421#14 284051421#15 517445579#0 517445579#1 517445558 281753649 701069964#0-AddedOnRampEdge 701069964#0" />
    </vehicle>
    <vehicle id="veh33" type="normal_vehicle" depart="6.60">
        <route edges="-9532053#4 9532060#4 9532060#5 240380134#0 240380134#1 964405636#0 964405636#1 256768734#1 253055141 253055140#0 240380120#0 240380120#2 240380120#3 240380149#0 240380149#2 240380149#4 240380149#7 240380149#8 240380149#10 240380149#11 984086647#0 984086647#2 256766490 885447253 256766491#2 31654382 31654384#0 31654384#1 -8106564#1 -8106564#0 8106561#2 8106561#3 107918576 -107916724#0 -134997252#2 -134997252#1" />
    </vehicle>