<?xml version="1.0" encoding="UTF-8"?>

<!-- generated on 2026-03-04 14:04:16.056146 by randomTrips.py v1_23_0+0000-ad042bb7d28
<configuration>
    <net-file value="scenarios/BH/bh.net.xml"/>
    <output-trip-file value="scenarios/BH/trips.trips.xml"/>
    <route-file value="scenarios/BH/bh_routes.rou.xml"/>
    <prefix value="veh"/>
    <vehicle-class value="passenger"/>
    <end value="600.0"/>
    <period value="0.2"/>
</configuration>
-->

<routes xmlns:xsi="http://www.w3.org/2001/XMLSchema-instance" xsi:noNamespaceSchemaLocation="http://sumo.dlr.de/xsd/routes_file.xsd">
    <vType id="veh_passenger" vClass="passenger"/>
    <trip id="veh0" depart="0.00" from="338322630#1" to="-133114811#1" type="veh_passenger"/>
    <trip id="veh1" depart="0.20" from="1024982826" to="-91979794#3" type="veh_passenger"/>
    <trip id="veh2" depart="0.40" from="518693511#3" to="4600673" type="veh_passenger"/>
    <trip id="veh3" depart="0.60" from="959599419#0" to="-280247434#1" type="veh_passenger"/>
    <trip id="veh4" depart="0.80" from="244672352#0" to="-133436789#0" type="veh_passenger"/>
    <trip id="veh5" depart="1.00" from="-886084672" to="279164935#1" type="veh_passenger"/>
    <trip id="veh6" depart="1.20" from="-133240825#0" to="-8658701#0" type="veh_passenger"/>
    <trip id="veh7" depart="1.40" from="378662406#1" to="281599130#3" type="veh_passenger"/>
    <trip id="veh8" depart="1.60" from="-8887546#1" to="28975512#1" type="veh_passenger"/>
    <trip id="veh9" depart="1.80" from="8106589#0" to="-10597956#4" type="veh_passenger"/>
    <trip id="veh10" depart="2.00" from="8106568#1" to="4725013#3" type="veh_passenger"/>
    <trip id="veh11" depart="2.20" from="1391974228#2" to="-5364987#1" type="veh_passenger"/>
    <trip id="veh12" depart="2.40" from="970168110#2" to="1369965209" type="veh_passenger"/>
    <trip id="veh13" depart="2.60" from="-281465646#3" to="-284132614#2" type="veh_passenger"/>
    <trip id="veh14" depart="2.80" from="8779960#0" to="292330199#2" type="veh_passenger"/>
    <trip id="veh15" depart="3.00" from="8106576#3" to="5173326#0" type="veh_passenger"/>
    <trip id="veh16" depart="3.20" from="280481805#9" to="9704065" type="veh_passenger"/>
    <trip id="veh17" depart="3.40" from="221976193#1" to="283271317" type="veh_passenger"/>
    <trip id="veh18" depart="3.60" from="8658701#1" to="30420783" type="veh_passenger"/>
    <trip id="veh19" depart="3.80" from="885775951#0" to="288854797#1" type="veh_passenger"/>
    <trip id="veh20" depart="4.00" from="4887832#5" to="-197593194#0" type="veh_passenger"/>
    <trip id="veh21" depart="4.20" from="-9529619#6" to="10644908#0" type="veh_passenger"/>
    <trip id="veh22" depart="4.40" from="-278724707#0" to="-959887595" type="veh_passenger"/>
    <trip id="veh23" depart="4.60" from="-287321816#0" to="1037191311" type="veh_passenger"/>
    <trip id="veh24" depart="4.80" from="327003418#2" to="217957235#1" type="veh_passenger"/>
    <trip id="veh25" depart="5.00" from="218100064#0" to="-8780002#3" type="veh_passenger"/>
    <trip id="veh26" depart="5.20" from="-9790198#2" to="965962214" type="veh_passenger"/>
    <trip id="veh27" depart="5.40" from="378662373#1" to="29433039#0" type="veh_passenger"/>
    <trip id="veh28" depart="5.60" from="-701097142#0" to="5173183#2" type="veh_passenger"/>
    <trip id="veh29" depart="5.80" from="-644623723#1" to="222031272#3" type="veh_passenger"/>
    <trip id="veh30" depart="6.00" from="9788831#1" to="359654773#1" type="veh_passenger"/>
    <trip id="veh31" depart="6.20" from="284047058#0" to="4600797#11" type="veh_passenger"/>
    <trip id="veh32" depart="6.40" from="87289743" to="701069964#0" type="veh_passenger"/>
    <trip id="veh33" depart="6.60" from="-9532053#4" to="-134997252#1" type="veh_passenger"/>
    <trip id="veh34" depart="6.80" from="131708160#1" to="-9874683#5" type="veh_passenger"/>
    <trip id="veh35" depart="7.00" from="-8779971#1" to="967648690#0" type="veh_passenger"/>
    <trip id="veh36" depart="7.20" from="91979793" to="131708527#0" type="veh_passenger"/>
    <trip id="veh37" depart="7.40" from="386016128#1" to="225240558" type="veh_passenger"/>
    <trip id="veh38" depart="7.60" from="964082163" to="263860145#1" type="veh_passenger"/>
    <trip id="veh39" depart="7.80" from="-9788559" to="-9677571#2" type="veh_passenger"/>
    <trip id="veh40" depart="8.00" from="284348773#0" to="-9790175#2" type="veh_passenger"/>
    <trip id="veh41" depart="8.20" from="289623982#3" to="963030989#0" type="veh_passenger"/>
    <trip id="veh42" depart="8.40" from="225855751#0" to="-8887569#0" type="veh_passenger"/>
    <trip id="veh43" depart="8.60" from="9874683#0" to="279368302" type="veh_passenger"/>
    <trip id="veh44" depart="8.80" from="-280763542#0" to="-217957233#1" type="veh_passenger"/>
    <trip id="veh45" depart="9.00" from="-292968642#3" to="314919629#1" type="veh_passenger"/>
    <trip id="veh46" depart="9.20" from="8003679#0" to="251808134#1" type="veh_passenger"/>
    <trip id="veh47" depart="9.40" from="-234501648" to="222236657#0" type="veh_passenger"/>
    <trip id="veh48" depart="9.60" from="9805977" to="280412802#0" type="veh_passenger"/>
    <trip id="veh49" depart="9.80" from="970339243" to="885428105" type="veh_passenger"/>
    <trip id="veh50" depart="10.00" from="-107914736#1" to="508190012#3" type="veh_passenger"/>
    <trip id="veh51" depart="10.20" from="4600723#3" to="280764668#2" type="veh_passenger"/>
    <trip id="veh52" depart="10.40" from="-9790198#0" to="361175523" type="veh_passenger"/>
    <trip id="veh53" depart="10.60" from="-299672706#1" to="253055187#0" type="veh_passenger"/>
    <trip id="veh54" depart="10.80" from="256196100#1" to="968895760" type="veh_passenger"/>
    <trip id="veh55" depart="11.00" from="91582196#3" to="-9790196" type="veh_passenger"/>
    <trip id="veh56" depart="11.20" from="279160682#1" to="-8098285#1" type="veh_passenger"/>
    <trip id="veh57" depart="11.40" from="964048273" to="889471502#2" type="veh_passenger"/>
    <trip id="veh58" depart="11.60" from="111829348" to="356685162" type="veh_passenger"/>
    <trip id="veh59" depart="11.80" from="292971981" to="-509363192#1" type="veh_passenger"/>
    <trip id="veh60" depart="12.00" from="644623886" to="281037105#1" type="veh_passenger"/>
    <trip id="veh61" depart="12.20" from="701095591#2" to="280413802-AddedOffRampEdge" type="veh_passenger"/>
    <trip id="veh62" depart="12.40" from="-1013326814" to="133381568#2" type="veh_passenger"/>
    <trip id="veh63" depart="12.60" from="-126246017#2" to="965678280#0" type="veh_passenger"/>
    <trip id="veh64" depart="12.80" from="945120647#0" to="8661221#0" type="veh_passenger"/>
    <trip id="veh65" depart="13.00" from="121423389#2" to="-222561713#4" type="veh_passenger"/>
    <trip id="veh66" depart="13.20" from="936876471#0" to="9677554#1" type="veh_passenger"/>
    <trip id="veh67" depart="13.40" from="-279485805#4" to="278697326#1" type="veh_passenger"/>
    <trip id="veh68" depart="13.60" from="-253062310#2" to="644623723#1" type="veh_passenger"/>
    <trip id="veh69" depart="13.80" from="644668493#0" to="-427917676#0" type="veh_passenger"/>
    <trip id="veh70" depart="14.00" from="277925543#0" to="282340560#5" type="veh_passenger"/>
    <trip id="veh71" depart="14.20" from="-9788606#0" to="890098784#1" type="veh_passenger"/>
    <trip id="veh72" depart="14.40" from="244672371#1" to="-8795602#3" type="veh_passenger"/>
    <trip id="veh73" depart="14.60" from="280764955#2" to="5173351#2" type="veh_passenger"/>
    <trip id="veh74" depart="14.80" from="-8658693#7" to="127002719#1" type="veh_passenger"/>
    <trip id="veh75" depart="15.00" from="9805959#10" to="379236429" type="veh_passenger"/>
    <trip id="veh76" depart="15.20" from="253062289#0" to="279484950#2" type="veh_passenger"/>
    <trip id="veh77" depart="15.40" from="-336931717#2" to="-9529619#6" type="veh_passenger"/>
    <trip id="veh78" depart="15.60" from="136554478#2" to="28967361#4" type="veh_passenger"/>
    <trip id="veh79" depart="15.80" from="-9532068" to="-8887573" type="veh_passenger"/>
    <trip id="veh80" depart="16.00" from="-255945694#2" to="31752493#1" type="veh_passenger"/>
    <trip id="veh81" depart="16.20" from="-9532053#3" to="9633943#0" type="veh_passenger"/>
    <trip id="veh82" depart="16.40" from="885124556" to="-256117718#3" type="veh_passenger"/>
    <trip id="veh83" depart="16.60" from="-9633883#0" to="4543344#10" type="veh_passenger"/>
    <trip id="veh84" depart="16.80" from="-8795560#0" to="-45978559" type="veh_passenger"/>
    <trip id="veh85" depart="17.00" from="965749901#1" to="287526534#6" type="veh_passenger"/>
    <trip id="veh86" depart="17.20" from="276726021#3" to="724151063#2" type="veh_passenger"/>
    <trip id="veh87" depart="17.40" from="8106579#0" to="-815549097" type="veh_passenger"/>
    <trip id="veh88" depart="17.60" from="-283264855#6" to="253055156#4" type="veh_passenger"/>
    <trip id="veh89" depart="17.80" from="244672379#2" to="276255832" type="veh_passenger"/>
    <trip id="veh90" depart="18.00" from="515871625#2" to="4566773" type="veh_passenger"/>
    <trip id="veh91" depart="18.20" from="9704155#5" to="-285603382#0" type="veh_passenger"/>
    <trip id="veh92" depart="18.40" from="227729325#4" to="1436584521#1" type="veh_passenger"/>
    <trip id="veh93" depart="18.60" from="885504618" to="-9677641#0" type="veh_passenger"/>
    <trip id="veh94" depart="18.80" from="-8107783#5" to="256117718#2" type="veh_passenger"/>
    <trip id="veh95" depart="19.00" from="244672352#0" to="1037191318#0" type="veh_passenger"/>
    <trip id="veh96" depart="19.20" from="-9677538#1" to="964656617" type="veh_passenger"/>
    <trip id="veh97" depart="19.40" from="253062331#1" to="885500882" type="veh_passenger"/>
    <trip id="veh98" depart="19.60" from="282185454" to="-218389824#3" type="veh_passenger"/>
    <trip id="veh99" depart="19.80" from="9874697#0" to="8662653" type="veh_passenger"/>
    <trip id="veh100" depart="20.00" from="9703135#0" to="964730988" type="veh_passenger"/>
    <trip id="veh101" depart="20.20" from="8779974#4" to="-673527776#5" type="veh_passenger"/>
    <trip id="veh102" depart="20.40" from="278526657#1" to="-884665153" type="veh_passenger"/>
    <trip id="veh103" depart="20.60" from="227111397#4" to="-222585220#2" type="veh_passenger"/>
    <trip id="veh104" depart="20.80" from="221976193#6" to="972079248#1" type="veh_passenger"/>
    <trip id="veh105" depart="21.00" from="-9788609#0" to="724151061#1" type="veh_passenger"/>
    <trip id="veh106" depart="21.20" from="256196253#3" to="251870226#0" type="veh_passenger"/>
    <trip id="veh107" depart="21.40" from="970168110#4" to="9805959#8" type="veh_passenger"/>
    <trip id="veh108" depart="21.60" from="284021502#3" to="5060534" type="veh_passenger"/>
    <trip id="veh109" depart="21.80" from="-513973676#2" to="11257524" type="veh_passenger"/>
    <trip id="veh110" depart="22.00" from="9703133" to="289138279#1" type="veh_passenger"/>
    <trip id="veh111" depart="22.20" from="281156715#1" to="567924282#3" type="veh_passenger"/>
    <trip id="veh112" depart="22.40" from="-222472659" to="289666156#3" type="veh_passenger"/>
    <trip id="veh113" depart="22.60" from="279161389" to="8795603#1" type="veh_passenger"/>
    <trip id="veh114" depart="22.80" from="-550446951#2" to="970172109#0" type="veh_passenger"/>
    <trip id="veh115" depart="23.00" from="-278742220#1" to="-8106583#1" type="veh_passenger"/>
    <trip id="veh116" depart="23.20" from="29123838#1" to="4600634#1" type="veh_passenger"/>
    <trip id="veh117" depart="23.40" from="-959546322" to="-329055491#0" type="veh_passenger"/>
    <trip id="veh118" depart="23.60" from="9532178#3" to="-9677538#1" type="veh_passenger"/>
    <trip id="veh119" depart="23.80" from="29123828#1" to="30425595#1" type="veh_passenger"/>
    <trip id="veh120" depart="24.00" from="240380133" to="289660483#3" type="veh_passenger"/>
    <trip id="veh121" depart="24.20" from="279579711#0" to="965746265#0" type="veh_passenger"/>
    <trip id="veh122" depart="24.40" from="-8662318#4" to="4986612#1" type="veh_passenger"/>
    <trip id="veh123" depart="24.60" from="-9633892#1" to="225240560#1" type="veh_passenger"/>
    <trip id="veh124" depart="24.80" from="4543344#15" to="115779430#0" type="veh_passenger"/>
    <trip id="veh125" depart="25.00" from="131708516#1" to="59612433#1" type="veh_passenger"/>
    <trip id="veh126" depart="25.20" from="-256196253#1" to="257815706#1" type="veh_passenger"/>
    <trip id="veh127" depart="25.40" from="9874688#3" to="9805978#0" type="veh_passenger"/>
    <trip id="veh128" depart="25.60" from="-256207907" to="-883666865#3" type="veh_passenger"/>
    <trip id="veh129" depart="25.80" from="-9788609#0" to="965739913#1" type="veh_passenger"/>
    <trip id="veh130" depart="26.00" from="9529612#0" to="945163858" type="veh_passenger"/>
    <trip id="veh131" depart="26.20" from="218025463#6" to="-593928733#0" type="veh_passenger"/>
    <trip id="veh132" depart="26.40" from="8662322" to="488882038#0" type="veh_passenger"/>
    <trip id="veh133" depart="26.60" from="29442357#3" to="9788606#0" type="veh_passenger"/>
    <trip id="veh134" depart="26.80" from="380951415#2" to="-10597972" type="veh_passenger"/>
    <trip id="veh135" depart="27.00" from="815549096#1" to="114413612#0" type="veh_passenger"/>
    <trip id="veh136" depart="27.20" from="427921171#1" to="966001778" type="veh_passenger"/>
    <trip id="veh137" depart="27.40" from="-4600660" to="-314275941" type="veh_passenger"/>
    <trip id="veh138" depart="27.60" from="-29123828#3" to="284015064#0" type="veh_passenger"/>
    <trip id="veh139" depart="27.80" from="-9874697#0" to="292386042#1" type="veh_passenger"/>
    <trip id="veh140" depart="28.00" from="498068502" to="-8662966#0" type="veh_passenger"/>
    <trip id="veh141" depart="28.20" from="320074019#1" to="-9790216#1" type="veh_passenger"/>
    <trip id="veh142" depart="28.40" from="278697220#6" to="9633941#3" type="veh_passenger"/>
    <trip id="veh143" depart="28.60" from="8764211#1" to="-281465646#8" type="veh_passenger"/>
    <trip id="veh144" depart="28.80" from="244672379#10" to="1035364164" type="veh_passenger"/>
    <trip id="veh145" depart="29.00" from="-10597924#3" to="675560217#3" type="veh_passenger"/>
    <trip id="veh146" depart="29.20" from="330225313#0" to="-9788606#0" type="veh_passenger"/>
    <trip id="veh147" depart="29.40" from="5204101#1" to="283264856#1" type="veh_passenger"/>
    <trip id="veh148" depart="29.60" from="251994145" to="-10644904#3" type="veh_passenger"/>
    <trip id="veh149" depart="29.80" from="-276279692#2" to="9529621#6" type="veh_passenger"/>
    <trip id="veh150" depart="30.00" from="9633934#2" to="281635635#1" type="veh_passenger"/>
    <trip id="veh151" depart="30.20" from="8662325#4" to="289563851#0" type="veh_passenger"/>
    <trip id="veh152" depart="30.40" from="-488882036#0" to="-425343181#2" type="veh_passenger"/>
    <trip id="veh153" depart="30.60" from="121427093#5" to="9633869#2" type="veh_passenger"/>
    <trip id="veh154" depart="30.80" from="8098267#0" to="885428105" type="veh_passenger"/>
    <trip id="veh155" depart="31.00" from="9633869#4" to="-8780019#2" type="veh_passenger"/>
    <trip id="veh156" depart="31.20" from="-9677537#1" to="-288052112#6" type="veh_passenger"/>
    <trip id="veh157" depart="31.40" from="701516625" to="9532060#0" type="veh_passenger"/>
    <trip id="veh158" depart="31.60" from="227814905#0" to="30636817#1" type="veh_passenger"/>
    <trip id="veh159" depart="31.80" from="-513276756" to="965683935#0" type="veh_passenger"/>
    <trip id="veh160" depart="32.00" from="8887510" to="9704076#7" type="veh_passenger"/>
    <trip id="veh161" depart="32.20" from="8107783#2" to="9529615" type="veh_passenger"/>
    <trip id="veh162" depart="32.40" from="-133114806" to="518694400#4-AddedOffRampEdge" type="veh_passenger"/>
    <trip id="veh163" depart="32.60" from="1348029202#3" to="965704222#1" type="veh_passenger"/>
    <trip id="veh164" depart="32.80" from="8105403#5" to="8887504#0" type="veh_passenger"/>
    <trip id="veh165" depart="33.00" from="8107783#2" to="-9805966" type="veh_passenger"/>
    <trip id="veh166" depart="33.20" from="74395823#4" to="-29267371#2" type="veh_passenger"/>
    <trip id="veh167" depart="33.40" from="890076674#1" to="885002306" type="veh_passenger"/>
    <trip id="veh168" depart="33.60" from="-8887569#2" to="815549712#3" type="veh_passenger"/>
    <trip id="veh169" depart="33.80" from="256924424#1" to="121427094#0" type="veh_passenger"/>
    <trip id="veh170" depart="34.00" from="8097763" to="-9532072#2" type="veh_passenger"/>
    <trip id="veh171" depart="34.20" from="-131898866#0" to="-8658611#0" type="veh_passenger"/>
    <trip id="veh172" depart="34.40" from="133436782#0" to="8887510" type="veh_passenger"/>
    <trip id="veh173" depart="34.60" from="9703120#3" to="1037191322#0" type="veh_passenger"/>
    <trip id="veh174" depart="34.80" from="356685162" to="227729325#1" type="veh_passenger"/>
    <trip id="veh175" depart="35.00" from="9704105#1" to="280763541#2" type="veh_passenger"/>
    <trip id="veh176" depart="35.20" from="966005058#0" to="-314212663#1" type="veh_passenger"/>
    <trip id="veh177" depart="35.40" from="9703151#3" to="-8098285#0" type="veh_passenger"/>
    <trip id="veh178" depart="35.60" from="970173560" to="-9797979#3" type="veh_passenger"/>
    <trip id="veh179" depart="35.80" from="-29221088" to="253055183" type="veh_passenger"/>
    <trip id="veh180" depart="36.00" from="5154372#1" to="131708517#4" type="veh_passenger"/>
    <trip id="veh181" depart="36.20" from="292330343#0" to="279402175#8-AddedOffRampEdge" type="veh_passenger"/>
    <trip id="veh182" depart="36.40" from="222465742#4" to="288357115" type="veh_passenger"/>
    <trip id="veh183" depart="36.60" from="-9703114#2" to="497545500#3" type="veh_passenger"/>
    <trip id="veh184" depart="36.80" from="-1028708985#0" to="964721094#3" type="veh_passenger"/>
    <trip id="veh185" depart="37.00" from="280763542#1" to="5060537#4" type="veh_passenger"/>
    <trip id="veh186" depart="37.20" from="521581073#1" to="4543349#2" type="veh_passenger"/>
    <trip id="veh187" depart="37.40" from="201182787" to="-255556702#4" type="veh_passenger"/>
    <trip id="veh188" depart="37.60" from="431226491#0" to="134997252#1" type="veh_passenger"/>
    <trip id="veh189" depart="37.80" from="126246017#1" to="8779974#0" type="veh_passenger"/>
    <trip id="veh190" depart="38.00" from="503662641#0" to="115779433#0" type="veh_passenger"/>
    <trip id="veh191" depart="38.20" from="121429648#1" to="234501647#2" type="veh_passenger"/>
    <trip id="veh192" depart="38.40" from="227729325#1" to="111830063" type="veh_passenger"/>
    <trip id="veh193" depart="38.60" from="-42005239#2" to="244672371#2-AddedOnRampEdge" type="veh_passenger"/>
    <trip id="veh194" depart="38.80" from="966530359" to="4600692#2" type="veh_passenger"/>
    <trip id="veh195" depart="39.00" from="9633921#1" to="299672707#1" type="veh_passenger"/>
    <trip id="veh196" depart="39.20" from="11257545#1" to="281823638#1" type="veh_passenger"/>
    <trip id="veh197" depart="39.40" from="-1007845795#1" to="10600957#3" type="veh_passenger"/>
    <trip id="veh198" depart="39.60" from="253055140#0" to="289263098" type="veh_passenger"/>
    <trip id="veh199" depart="39.80" from="386016124#2" to="276210335#2" type="veh_passenger"/>
    <trip id="veh200" depart="40.00" from="253062320#6" to="-884592631" type="veh_passenger"/>
    <trip id="veh201" depart="40.20" from="276726784" to="9633901#0" type="veh_passenger"/>
    <trip id="veh202" depart="40.40" from="8098265#3" to="-701329724" type="veh_passenger"/>
    <trip id="veh203" depart="40.60" from="-279478182" to="279478873" type="veh_passenger"/>
    <trip id="veh204" depart="40.80" from="31654390#7" to="136554478#2" type="veh_passenger"/>
    <trip id="veh205" depart="41.00" from="82659312#2" to="593928730#2" type="veh_passenger"/>
    <trip id="veh206" depart="41.20" from="4543349#0" to="-9529619#5" type="veh_passenger"/>
    <trip id="veh207" depart="41.40" from="-8658651" to="-133114801#1" type="veh_passenger"/>
    <trip id="veh208" depart="41.60" from="-963778230" to="278269358" type="veh_passenger"/>
    <trip id="veh209" depart="41.80" from="8780012#1" to="-256923548" type="veh_passenger"/>
    <trip id="veh210" depart="42.00" from="237810122#2" to="31654384#2" type="veh_passenger"/>
    <trip id="veh211" depart="42.20" from="-84545078#3" to="471451932#4" type="veh_passenger"/>
    <trip id="veh212" depart="42.40" from="278910305#0" to="-964729571#2" type="veh_passenger"/>
    <trip id="veh213" depart="42.60" from="38795409#1" to="-10597954#0" type="veh_passenger"/>
    <trip id="veh214" depart="42.80" from="575643601#0" to="673527776#0" type="veh_passenger"/>
    <trip id="veh215" depart="43.00" from="-290471790#2" to="253055133" type="veh_passenger"/>
    <trip id="veh216" depart="43.20" from="-784361281#8" to="970169185" type="veh_passenger"/>
    <trip id="veh217" depart="43.40" from="279479779#0" to="-218389823#0" type="veh_passenger"/>
    <trip id="veh218" depart="43.60" from="-966789700#1" to="8779974#4" type="veh_passenger"/>
    <trip id="veh219" depart="43.80" from="256207898#0" to="8105403#3" type="veh_passenger"/>
    <trip id="veh220" depart="44.00" from="4498809#13" to="9788616" type="veh_passenger"/>
    <trip id="veh221" depart="44.20" from="29123843#1" to="9677626#1" type="veh_passenger"/>
    <trip id="veh222" depart="44.40" from="959588031" to="295097764" type="veh_passenger"/>
    <trip id="veh223" depart="44.60" from="498872390#2" to="279164306" type="veh_passenger"/>
    <trip id="veh224" depart="44.80" from="8661175#0" to="281823638#0" type="veh_passenger"/>
    <trip id="veh225" depart="45.00" from="963025330#0" to="5464801#1" type="veh_passenger"/>
    <trip id="veh226" depart="45.20" from="277879978" to="-9704140#1" type="veh_passenger"/>
    <trip id="veh227" depart="45.40" from="-964698527" to="338783794#0-AddedOffRampEdge" type="veh_passenger"/>
    <trip id="veh228" depart="45.60" from="644668493#0" to="279673440" type="veh_passenger"/>
    <trip id="veh229" depart="45.80" from="314212660#1" to="1026405386#3" type="veh_passenger"/>
    <trip id="veh230" depart="46.00" from="-278457289#0" to="10597967#7" type="veh_passenger"/>
    <trip id="veh231" depart="46.20" from="-9874689#0" to="133114811#1" type="veh_passenger"/>
    <trip id="veh232" depart="46.40" from="280824724#2" to="-4600777#7" type="veh_passenger"/>
    <trip id="veh233" depart="46.60" from="-9532103" to="4680935#0" type="veh_passenger"/>
    <trip id="veh234" depart="46.80" from="488884045" to="-235026228#5" type="veh_passenger"/>
    <trip id="veh235" depart="47.00" from="227830545" to="281465645#0" type="veh_passenger"/>
    <trip id="veh236" depart="47.20" from="240298832#2" to="-8773365#1" type="veh_passenger"/>
    <trip id="veh237" depart="47.40" from="240380146#1" to="9633939#1" type="veh_passenger"/>
    <trip id="veh238" depart="47.60" from="289563851#0" to="4695356#3" type="veh_passenger"/>
    <trip id="veh239" depart="47.80" from="884665158" to="645091676" type="veh_passenger"/>
    <trip id="veh240" depart="48.00" from="222003860#1" to="-10597954#4" type="veh_passenger"/>
    <trip id="veh241" depart="48.20" from="162505288#0" to="61673077-AddedOffRampEdge" type="veh_passenger"/>
    <trip id="veh242" depart="48.40" from="8795606#1" to="967957691" type="veh_passenger"/>
    <trip id="veh243" depart="48.60" from="240380131" to="563935173" type="veh_passenger"/>
    <trip id="veh244" depart="48.80" from="281556154" to="292330199#11" type="veh_passenger"/>
    <trip id="veh245" depart="49.00" from="-8887549#1" to="-8887569#2" type="veh_passenger"/>
    <trip id="veh246" depart="49.20" from="253055170#6" to="-133436782#0" type="veh_passenger"/>
    <trip id="veh247" depart="49.40" from="136231431#2" to="4600719#4" type="veh_passenger"/>
    <trip id="veh248" depart="49.60" from="227729617#1" to="-645337132" type="veh_passenger"/>
    <trip id="veh249" depart="49.80" from="275829028#2" to="-425343181#4" type="veh_passenger"/>
    <trip id="veh250" depart="50.00" from="30636638" to="-133379650#1" type="veh_passenger"/>
    <trip id="veh251" depart="50.20" from="222716078" to="285880983#2" type="veh_passenger"/>
    <trip id="veh252" depart="50.40" from="-133379650#0" to="366029355#4" type="veh_passenger"/>
    <trip id="veh253" depart="50.60" from="-4600719#1" to="266432236#3" type="veh_passenger"/>
    <trip id="veh254" depart="50.80" from="-218123875#2" to="222030614#4" type="veh_passenger"/>
    <trip id="veh255" depart="51.00" from="-8779979#0" to="133436790#19" type="veh_passenger"/>
    <trip id="veh256" depart="51.20" from="644622264#0" to="222030614#4" type="veh_passenger"/>
    <trip id="veh257" depart="51.40" from="580613824#1" to="8662306" type="veh_passenger"/>
    <trip id="veh258" depart="51.60" from="-9677641#1" to="-279099896#4" type="veh_passenger"/>
    <trip id="veh259" depart="51.80" from="-126238040#1" to="281037105#1" type="veh_passenger"/>
    <trip id="veh260" depart="52.00" from="99947377#6" to="167016749#3" type="veh_passenger"/>
    <trip id="veh261" depart="52.20" from="378670413#0" to="70944846#1" type="veh_passenger"/>
    <trip id="veh262" depart="52.40" from="379236412#1" to="61673085" type="veh_passenger"/>
    <trip id="veh263" depart="52.60" from="9677624" to="-8661173#2" type="veh_passenger"/>
    <trip id="veh264" depart="52.80" from="-131708157#1" to="-508853085" type="veh_passenger"/>
    <trip id="veh265" depart="53.00" from="-386016128#4" to="4543344#15" type="veh_passenger"/>
    <trip id="veh266" depart="53.20" from="285603248#1" to="-8887551" type="veh_passenger"/>
    <trip id="veh267" depart="53.40" from="4721043#1" to="645406749" type="veh_passenger"/>
    <trip id="veh268" depart="53.60" from="-675560217#0" to="292971981" type="veh_passenger"/>
    <trip id="veh269" depart="53.80" from="5580329#1" to="-314212658#4" type="veh_passenger"/>
    <trip id="veh270" depart="54.00" from="839495195#3" to="970176922" type="veh_passenger"/>
    <trip id="veh271" depart="54.20" from="-29183548#1" to="-133238831#4" type="veh_passenger"/>
    <trip id="veh272" depart="54.40" from="1222456203#6" to="4600692#2" type="veh_passenger"/>
    <trip id="veh273" depart="54.60" from="970169185" to="225855750#2" type="veh_passenger"/>
    <trip id="veh274" depart="54.80" from="497935311#0" to="-278231130#1" type="veh_passenger"/>
    <trip id="veh275" depart="55.00" from="4608769#2" to="314919618#3" type="veh_passenger"/>
    <trip id="veh276" depart="55.20" from="-287526412#1" to="683033271#2" type="veh_passenger"/>
    <trip id="veh277" depart="55.40" from="8780019#5" to="29193631" type="veh_passenger"/>
    <trip id="veh278" depart="55.60" from="-336931717#2" to="9704155#5" type="veh_passenger"/>
    <trip id="veh279" depart="55.80" from="70944846#5" to="161536113#5" type="veh_passenger"/>
    <trip id="veh280" depart="56.00" from="253055136#0" to="218526311" type="veh_passenger"/>
    <trip id="veh281" depart="56.20" from="279163183#1" to="1455145274" type="veh_passenger"/>
    <trip id="veh282" depart="56.40" from="8780002#4" to="8658611#6" type="veh_passenger"/>
    <trip id="veh283" depart="56.60" from="-289666163#0" to="970172109#0" type="veh_passenger"/>
    <trip id="veh284" depart="56.80" from="327003418#1" to="8658699#1" type="veh_passenger"/>
    <trip id="veh285" depart="57.00" from="4894307" to="253062290#3" type="veh_passenger"/>
    <trip id="veh286" depart="57.20" from="517461088#0" to="9703111" type="veh_passenger"/>
    <trip id="veh287" depart="57.40" from="-9805966" to="8106586#0" type="veh_passenger"/>
    <trip id="veh288" depart="57.60" from="280763541#3" to="278538157#6" type="veh_passenger"/>
    <trip id="veh289" depart="57.80" from="253055170#3" to="517445569#3" type="veh_passenger"/>
    <trip id="veh290" depart="58.00" from="-9797979#0" to="8795554#1" type="veh_passenger"/>
    <trip id="veh291" depart="58.20" from="8661177#0" to="-280247416#3" type="veh_passenger"/>
    <trip id="veh292" depart="58.40" from="9529618#0" to="-964729570" type="veh_passenger"/>
    <trip id="veh293" depart="58.60" from="266432236#4" to="29442357#7" type="veh_passenger"/>
    <trip id="veh294" depart="58.80" from="221976193#6" to="-133390812#1" type="veh_passenger"/>
    <trip id="veh295" depart="59.00" from="8795547#0" to="-8106561#0" type="veh_passenger"/>
    <trip id="veh296" depart="59.20" from="-8780002#1" to="8098279#0" type="veh_passenger"/>
    <trip id="veh297" depart="59.40" from="1394792155" to="945263571#5" type="veh_passenger"/>
    <trip id="veh298" depart="59.60" from="4725018#3" to="1033873897" type="veh_passenger"/>
    <trip id="veh299" depart="59.80" from="-10644905#2" to="9677583#4" type="veh_passenger"/>
    <trip id="veh300" depart="60.00" from="-279485805#4" to="5060544#1" type="veh_passenger"/>
    <trip id="veh301" depart="60.20" from="278697248#0" to="644182592#0" type="veh_passenger"/>
    <trip id="veh302" depart="60.40" from="4608769#2" to="378662373#2" type="veh_passenger"/>
    <trip id="veh303" depart="60.60" from="278726720#1" to="8095260" type="veh_passenger"/>
    <trip id="veh304" depart="60.80" from="-281465646#7" to="-890568216" type="veh_passenger"/>
    <trip id="veh305" depart="61.00" from="4662937#1" to="121429648#3" type="veh_passenger"/>
    <trip id="veh306" depart="61.20" from="289263098" to="277932254#0" type="veh_passenger"/>
    <trip id="veh307" depart="61.40" from="280383296#1" to="253055136#0" type="veh_passenger"/>
    <trip id="veh308" depart="61.60" from="5469006#0" to="134997252#8" type="veh_passenger"/>
    <trip id="veh309" depart="61.80" from="484726889#0" to="1023461716#2" type="veh_passenger"/>
    <trip id="veh310" depart="62.00" from="-9677585#1" to="-336931717#0" type="veh_passenger"/>