<?xml version="1.0" encoding="UTF-8"?>

<!-- generated on 2025-06-27 09:17:28 by Eclipse SUMO netedit Version 1.23.0
-->

<routes xmlns:xsi="http://www.w3.org/2001/XMLSchema-instance" xsi:noNamespaceSchemaLocation="http://sumo.dlr.de/xsd/routes_file.xsd">
    <vType id="ElectricCar" accel="4.33" decel="4.33" length="5" maxSpeed="43.88" sigma="0.0" minGap="2.5" mass="1036" color="0,1,0.3" emissionClass="Energy/unknown">
        <param key="has.battery.device" value="true"/>
        <param key="device.battery.capacity" value="30000"/>
        <param key="maximumPower" value="150000"/>
        <param key="frontSurfaceArea" value="2.6"/>
        <param key="airDragCoefficient" value="0.35"/>
        <param key="rotatingMass" value="40"/>
        <param key="radialDragCoefficient" value="0.1"/>
        <param key="rollDragCoefficient" value="0.01"/>
        <param key="constantPowerIntake" value="100"/>
        <param key="propulsionEfficiency" value="0.98"/>
        <param key="recuperationEfficiency" value="0.96"/>
        <param key="stoppingThreshold" value="0.1"/>
        <param key="device.battery.maximumChargeRate" value="150000"/>
    </vType>
    <!-- Vehicles, persons and containers (sorted by depart) -->
    <vehicle id="v_0" type="ElectricCar" depart="0.00" color="0,255,50">
        <route edges="E6 E7 E8 E9 E10 E11 E12 E13 E14 E4 E5"/>
    </vehicle>
</routes>
