<?xml version="1.0" encoding="UTF-8"?>

<!-- generated on 2025-06-27 09:05:32 by Eclipse SUMO netedit Version 1.23.0
<neteditConfiguration xmlns:xsi="http://www.w3.org/2001/XMLSchema-instance" xsi:noNamespaceSchemaLocation="http://sumo.dlr.de/xsd/neteditConfiguration.xsd">

    <input>
        <sumocfg-file value="D:\GitHub\IC-redes-veiculares\experiment\ev_test\ev_test.sumocfg"/>
        <sumo-net-file value="D:\GitHub\IC-redes-veiculares\experiment\ev_test\ev_test.net.xml"/>
    </input>

    <output>
        <output-file value="D:\GitHub\IC-redes-veiculares\experiment\ev_test\ev_test.net.xml"/>
    </output>

    <processing>
        <offset.disable-normalization value="true"/>
    </processing>

    <junctions>
        <no-turnarounds value="true"/>
    </junctions>

    <netedit>
        <new-network value="false"/>
    </netedit>

</neteditConfiguration>
-->

<net version="1.20" junctionCornerDetail="5" limitTurnSpeed="5.50" xmlns:xsi="http://www.w3.org/2001/XMLSchema-instance" xsi:noNamespaceSchemaLocation="http://sumo.dlr.de/xsd/net_file.xsd">

    <location netOffset="0.00,0.00" convBoundary="-86.07,-59.12,49.28,36.78" origBoundary="10000000000.00,10000000000.00,-10000000000.00,-10000000000.00" projParameter="!"/>

    <edge id=":J10_0" function="internal">
        <lane id=":J10_0_0" index="0" speed="13.89" length="0.60" shape="45.38,-25.60 45.35,-25.77 45.32,-25.89 45.26,-26.00 45.17,-26.16"/>
    </edge>
    <edge id=":J11_0" function="internal">
        <lane id=":J11_0_0" index="0" speed="13.89" length="0.34" shape="25.25,-46.65 25.16,-46.70 25.10,-46.73 25.04,-46.76 24.94,-46.80"/>
    </edge>
    <edge id=":J12_0" function="internal">
        <lane id=":J12_0_0" index="0" speed="13.89" length="0.23" shape="-9.28,-56.51 -9.35,-56.52 -9.40,-56.53 -9.44,-56.53 -9.51,-56.54"/>
    </edge>
    <edge id=":J13_0" function="internal">
        <lane id=":J13_0_0" index="0" speed="13.89" length="0.49" shape="-43.59,-56.54 -43.73,-56.53 -43.83,-56.52 -43.93,-56.49 -44.07,-56.44"/>
    </edge>
    <edge id=":J14_0" function="internal">
        <lane id=":J14_0_0" index="0" speed="13.89" length="0.83" shape="-71.67,-44.90 -71.89,-44.80 -72.03,-44.70 -72.15,-44.58 -72.30,-44.38"/>
    </edge>
    <edge id=":J15_0" function="internal">
        <lane id=":J15_0_0" index="0" speed="13.89" length="0.58" shape="-84.37,-19.69 -84.42,-19.52 -84.44,-19.41 -84.44,-19.29 -84.43,-19.12"/>
    </edge>
    <edge id=":J5_0" function="internal">
        <lane id=":J5_0_0" index="0" speed="13.89" length="0.41" shape="-75.06,12.65 -75.01,12.76 -74.96,12.83 -74.91,12.90 -74.84,12.99"/>
    </edge>
    <edge id=":J6_0" function="internal">
        <lane id=":J6_0_0" index="0" speed="13.89" length="0.63" shape="-55.08,30.39 -54.92,30.49 -54.81,30.55 -54.69,30.59 -54.50,30.63"/>
    </edge>
    <edge id=":J7_0" function="internal">
        <lane id=":J7_0_0" index="0" speed="13.89" length="0.23" shape="-17.07,35.17 -17.01,35.17 -16.96,35.17 -16.91,35.17 -16.85,35.17"/>
    </edge>
    <edge id=":J8_0" function="internal">
        <lane id=":J8_0_0" index="0" speed="13.89" length="0.67" shape="25.70,26.38 25.89,26.32 26.01,26.26 26.12,26.19 26.27,26.06"/>
    </edge>
    <edge id=":J9_0" function="internal">
        <lane id=":J9_0_0" index="0" speed="13.89" length="0.68" shape="46.96,0.33 47.05,0.15 47.10,0.02 47.12,-0.11 47.13,-0.32"/>
    </edge>

    <edge id="E10" from="J11" to="J12" priority="-1" shape="25.82,-48.18 9.73,-54.14 -9.18,-58.12">
        <lane id="E10_0" index="0" speed="13.89" length="35.67" shape="24.94,-46.80 9.28,-52.60 -9.28,-56.51"/>
    </edge>
    <edge id="E11" from="J12" to="J13" priority="-1" shape="-9.18,-58.12 -25.50,-59.12 -44.17,-58.11">
        <lane id="E11_0" index="0" speed="13.89" length="34.13" shape="-9.51,-56.54 -25.51,-57.52 -43.59,-56.54"/>
    </edge>
    <edge id="E12" from="J13" to="J14" priority="-1" shape="-44.17,-58.11 -59.48,-52.32 -73.11,-46.00">
        <lane id="E12_0" index="0" speed="13.89" length="29.94" shape="-44.07,-56.44 -58.86,-50.84 -71.67,-44.90"/>
    </edge>
    <edge id="E13" from="J14" to="J15" priority="-1" shape="-73.11,-46.00 -81.93,-33.66 -86.07,-19.58">
        <lane id="E13_0" index="0" speed="13.89" length="27.88" shape="-72.30,-44.38 -80.47,-32.95 -84.37,-19.69"/>
    </edge>
    <edge id="E14" from="J15" to="J5" priority="-1" shape="-86.07,-19.58 -84.85,-3.37 -76.31,13.73">
        <lane id="E14_0" index="0" speed="13.89" length="33.75" shape="-84.43,-19.12 -83.28,-3.80 -75.06,12.65"/>
    </edge>
    <edge id="E4" from="J5" to="J6" priority="-1" shape="-76.31,13.73 -67.42,23.95 -55.45,32.07">
        <lane id="E4_0" index="0" speed="13.89" length="26.55" shape="-74.84,12.99 -66.35,22.74 -55.08,30.39"/>
    </edge>
    <edge id="E5" from="J6" to="J7" priority="-1" shape="-55.45,32.07 -37.14,35.86 -16.92,36.78">
        <lane id="E5_0" index="0" speed="13.89" length="37.82" shape="-54.50,30.63 -36.94,34.27 -17.07,35.17"/>
    </edge>
    <edge id="E6" from="J7" to="J8" priority="-1" shape="-16.92,36.78 5.28,34.63 26.83,27.70">
        <lane id="E6_0" index="0" speed="13.89" length="43.69" shape="-16.85,35.17 4.95,33.05 25.70,26.38"/>
    </edge>
    <edge id="E7" from="J8" to="J9" priority="-1" shape="26.83,27.70 41.58,14.60 48.70,0.44">
        <lane id="E7_0" index="0" speed="13.89" length="33.60" shape="26.27,26.06 40.29,13.61 46.96,0.33"/>
    </edge>
    <edge id="E8" from="J9" to="J10" priority="-1" shape="48.70,0.44 49.28,-12.95 46.85,-26.48">
        <lane id="E8_0" index="0" speed="13.89" length="25.50" shape="47.13,-0.32 47.67,-12.84 45.38,-25.60"/>
    </edge>
    <edge id="E9" from="J10" to="J11" priority="-1" shape="46.85,-26.48 38.38,-40.18 25.82,-48.18">
        <lane id="E9_0" index="0" speed="13.89" length="29.32" shape="45.17,-26.16 37.21,-39.03 25.25,-46.65"/>
    </edge>

    <junction id="J10" type="priority" x="46.85" y="-26.48" incLanes="E8_0" intLanes=":J10_0_0" shape="43.81,-25.32 46.96,-25.88 46.87,-26.32 46.82,-26.47 46.76,-26.61 46.66,-26.78 46.53,-27.00">
        <request index="0" response="0" foes="0" cont="0"/>
    </junction>
    <junction id="J11" type="priority" x="25.82" y="-48.18" incLanes="E9_0" intLanes=":J11_0_0" shape="24.39,-45.30 26.11,-48.00 25.89,-48.13 25.82,-48.17 25.74,-48.21 25.64,-48.25 25.50,-48.30">
        <request index="0" response="0" foes="0" cont="0"/>
    </junction>
    <junction id="J12" type="priority" x="-9.18" y="-58.12" incLanes="E10_0" intLanes=":J12_0_0" shape="-9.61,-54.94 -8.95,-58.07 -9.12,-58.11 -9.18,-58.12 -9.24,-58.12 -9.31,-58.13">
        <request index="0" response="0" foes="0" cont="0"/>
    </junction>
    <junction id="J13" type="priority" x="-44.17" y="-58.11" incLanes="E11_0" intLanes=":J13_0_0" shape="-43.50,-54.94 -43.67,-58.14 -44.04,-58.11 -44.17,-58.09 -44.29,-58.06 -44.44,-58.01 -44.63,-57.93">
        <request index="0" response="0" foes="0" cont="0"/>
    </junction>
    <junction id="J14" type="priority" x="-73.11" y="-46.00" incLanes="E12_0" intLanes=":J14_0_0" shape="-71.00,-43.45 -72.34,-46.36 -72.89,-46.08 -73.07,-45.95 -73.23,-45.80 -73.39,-45.60 -73.60,-45.31">
        <request index="0" response="0" foes="0" cont="0"/>
    </junction>
    <junction id="J15" type="priority" x="-86.07" y="-19.58" incLanes="E13_0" intLanes=":J15_0_0" shape="-86.03,-19.00 -82.84,-19.24 -85.91,-20.14 -86.02,-19.73 -86.04,-19.58 -86.05,-19.43 -86.04,-19.24">
        <request index="0" response="0" foes="0" cont="0"/>
    </junction>
    <junction id="J5" type="priority" x="-76.31" y="13.73" incLanes="E14_0" intLanes=":J5_0_0" shape="-76.04,14.04 -73.63,11.94 -76.49,13.37 -76.35,13.63 -76.30,13.72 -76.24,13.81 -76.16,13.91">
        <request index="0" response="0" foes="0" cont="0"/>
    </junction>
    <junction id="J6" type="priority" x="-55.45" y="32.07" incLanes="E4_0" intLanes=":J6_0_0" shape="-54.83,32.20 -54.18,29.07 -55.98,31.71 -55.58,31.97 -55.44,32.04 -55.28,32.09 -55.09,32.14">
        <request index="0" response="0" foes="0" cont="0"/>
    </junction>
    <junction id="J7" type="priority" x="-16.92" y="36.78" incLanes="E5_0" intLanes=":J7_0_0" shape="-16.69,36.76 -17.00,33.57 -17.15,36.77 -16.98,36.78 -16.92,36.78 -16.86,36.77">
        <request index="0" response="0" foes="0" cont="0"/>
    </junction>
    <junction id="J8" type="priority" x="26.83" y="27.70" incLanes="E6_0" intLanes=":J8_0_0" shape="27.33,27.25 25.21,24.86 26.19,27.91 26.65,27.74 26.81,27.67 26.96,27.57 27.12,27.44">
        <request index="0" response="0" foes="0" cont="0"/>
    </junction>
    <junction id="J9" type="priority" x="48.70" y="0.44" incLanes="E7_0" intLanes=":J9_0_0" shape="48.73,-0.25 45.53,-0.38 48.39,1.05 48.61,0.60 48.66,0.43 48.70,0.26 48.72,0.04">
        <request index="0" response="0" foes="0" cont="0"/>
    </junction>

    <connection from="E10" to="E11" fromLane="0" toLane="0" via=":J12_0_0" dir="s" state="M"/>
    <connection from="E11" to="E12" fromLane="0" toLane="0" via=":J13_0_0" dir="s" state="M"/>
    <connection from="E12" to="E13" fromLane="0" toLane="0" via=":J14_0_0" dir="s" state="M"/>
    <connection from="E13" to="E14" fromLane="0" toLane="0" via=":J15_0_0" dir="s" state="M"/>
    <connection from="E14" to="E4" fromLane="0" toLane="0" via=":J5_0_0" dir="s" state="M"/>
    <connection from="E4" to="E5" fromLane="0" toLane="0" via=":J6_0_0" dir="s" state="M"/>
    <connection from="E5" to="E6" fromLane="0" toLane="0" via=":J7_0_0" dir="s" state="M"/>
    <connection from="E6" to="E7" fromLane="0" toLane="0" via=":J8_0_0" dir="s" state="M"/>
    <connection from="E7" to="E8" fromLane="0" toLane="0" via=":J9_0_0" dir="s" state="M"/>
    <connection from="E8" to="E9" fromLane="0" toLane="0" via=":J10_0_0" dir="s" state="M"/>
    <connection from="E9" to="E10" fromLane="0" toLane="0" via=":J11_0_0" dir="s" state="M"/>

    <connection from=":J10_0" to="E9" fromLane="0" toLane="0" dir="s" state="M"/>
    <connection from=":J11_0" to="E10" fromLane="0" toLane="0" dir="s" state="M"/>
    <connection from=":J12_0" to="E11" fromLane="0" toLane="0" dir="s" state="M"/>
    <connection from=":J13_0" to="E12" fromLane="0" toLane="0" dir="s" state="M"/>
    <connection from=":J14_0" to="E13" fromLane="0" toLane="0" dir="s" state="M"/>
    <connection from=":J15_0" to="E14" fromLane="0" toLane="0" dir="s" state="M"/>
    <connection from=":J5_0" to="E4" fromLane="0" toLane="0" dir="s" state="M"/>
    <connection from=":J6_0" to="E5" fromLane="0" toLane="0" dir="s" state="M"/>
    <connection from=":J7_0" to="E6" fromLane="0" toLane="0" dir="s" state="M"/>
    <connection from=":J8_0" to="E7" fromLane="0" toLane="0" dir="s" state="M"/>
    <connection from=":J9_0" to="E8" fromLane="0" toLane="0" dir="s" state="M"/>

</net>
