<?xml version="1.0" encoding="UTF-8"?>

<!-- generated on 2025-07-04 09:10:43 by Eclipse SUMO netedit Version 1.23.0
-->

<additional xmlns:xsi="http://www.w3.org/2001/XMLSchema-instance" xsi:noNamespaceSchemaLocation="http://sumo.dlr.de/xsd/additional_file.xsd">
    <!-- StoppingPlaces -->
    <chargingStation id="cs_0" lane="E14_0" startPos="16.65" endPos="26.65"/>
    <chargingStation id="cs_1" lane="E7_0" startPos="7.53" endPos="17.53"/>
    <!-- Other additionals -->
    <rerouter id="rr_0" edges="E6" pos="19.71,25.16">
        <interval begin="0.00" end="1000000000.00">
            <destProbReroute id="E11" probability="1.00"/>
        </interval>
    </rerouter>
    <rerouter id="rr_1" edges="E11" pos="-37.93,-53.84">
        <interval begin="0.00" end="1000000000.00">
            <destProbReroute id="E6" probability="1.00"/>
        </interval>
    </rerouter>
</additional>
