<?xml version="1.0" encoding="UTF-8"?>

<!-- generated on 2025-06-27 09:20:24 by Eclipse SUMO netedit Version 1.23.0
-->

<additional xmlns:xsi="http://www.w3.org/2001/XMLSchema-instance" xsi:noNamespaceSchemaLocation="http://sumo.dlr.de/xsd/additional_file.xsd">
    <!-- StoppingPlaces -->
    <chargingStation id="cs_1" lane="E7_0" startPos="7.53" endPos="17.53"/>
    <!-- Other additionals -->
    <rerouter id="rr_0" edges="E6">
        <interval begin="0" end="1e9">
           <destProbReroute id="E11"/>
        </interval>
    </rerouter>
    
    <rerouter id="rr_1" edges="E11">
        <interval begin="0" end="1e9">
           <destProbReroute id="E6"/>
        </interval>
    </rerouter>
</additional>
