<?xml version="1.0" encoding="UTF-8"?>

<!-- generated on 2025-05-16 14:50:00 by Eclipse SUMO sumo Version 1.23.0
-->

<sumoConfiguration xmlns:xsi="http://www.w3.org/2001/XMLSchema-instance" xsi:noNamespaceSchemaLocation="http://sumo.dlr.de/xsd/sumoConfiguration.xsd">

    <input>
        <net-file value="test01.net.xml"/>
        <route-files value="test01.rou.xml"/>
    </input>

</sumoConfiguration>